electric-grid/physical/synthetic/synAustinTD/models/syn-austin-D_only-v03/P1R/base/opendss/Master.dss
Clear

New Circuit.Full_Network bus1=st_mat pu=1.0 basekV=230.0 R1=0.00001 X1=0.00001 R0=0.00001 X0=0.00001

Redirect p1rhs4_1247/Transformers.dss
Redirect p1rhs4_1247/p1rhs4_1247--p1rdt6999/Transformers.dss
Redirect p1rhs4_1247/p1rhs4_1247--p1rdt5851/Transformers.dss
Redirect p1rhs4_1247/p1rhs4_1247--p1rdt2300/Transformers.dss
Redirect p1rhs4_1247/p1rhs4_1247--p1rdt5481/Transformers.dss
Redirect p1rhs4_1247/p1rhs4_1247--p1rdt4715/Transformers.dss
Redirect p1rhs4_1247/p1rhs4_1247--p1rdt5185/Transformers.dss
Redirect p1rhs1_1247/Transformers.dss
Redirect p1rhs1_1247/p1rhs1_1247--p1rdt6634/Transformers.dss
Redirect p1rhs1_1247/p1rhs1_1247--p1rdt5979/Transformers.dss
Redirect p1rhs1_1247/p1rhs1_1247--p1rdt2397/Transformers.dss
Redirect p1rhs1_1247/p1rhs1_1247--p1rdt6578/Transformers.dss
Redirect p1rhs7_1247/p1rhs7_1247--p1rdt1161/Transformers.dss
Redirect p1rhs7_1247/Transformers.dss
Redirect p1rhs7_1247/p1rhs7_1247--p1rdt1291/Transformers.dss
Redirect p1rhs7_1247/p1rhs7_1247--p1rdt7669/Transformers.dss
Redirect p1rhs2_1247/Transformers.dss
Redirect p1rhs2_1247/p1rhs2_1247--p1rdt1528/Transformers.dss
Redirect p1rhs2_1247/p1rhs2_1247--p1rdt4805/Transformers.dss
Redirect p1rhs2_1247/p1rhs2_1247--p1rdt3426/Transformers.dss
Redirect p1rhs2_1247/p1rhs2_1247--p1rdt3039/Transformers.dss
Redirect p1rhs0_1247/p1rhs0_1247--p1rdt6854/Transformers.dss
Redirect p1rhs0_1247/Transformers.dss
Redirect p1rhs0_1247/p1rhs0_1247--p1rdt5663/Transformers.dss
Redirect p1rhs6_1247/Transformers.dss
Redirect p1rhs6_1247/p1rhs6_1247--p1rdt476/Transformers.dss
Redirect p1rhs6_1247/p1rhs6_1247--p1rdt6561/Transformers.dss
Redirect p1rhs5_1247/Transformers.dss
Redirect p1rhs5_1247/p1rhs5_1247--p1rdt7147/Transformers.dss
Redirect p1rhs5_1247/p1rhs5_1247--p1rdt7748/Transformers.dss
Redirect p1rhs5_1247/p1rhs5_1247--p1rdt1339/Transformers.dss
Redirect p1rhs5_1247/p1rhs5_1247--p1rdt8064/Transformers.dss
Redirect p1rhs3_1247/Transformers.dss
Redirect p1rhs3_1247/p1rhs3_1247--p1rdt2378/Transformers.dss
Redirect p1rhs3_1247/p1rhs3_1247--p1rdt2874/Transformers.dss
Redirect p1rhs3_1247/p1rhs3_1247--p1rdt8208/Transformers.dss
Redirect p1rhs3_1247/p1rhs3_1247--p1rdt3467/Transformers.dss
Redirect p1rhs3_1247/p1rhs3_1247--p1rdt8207/Transformers.dss
Redirect subtransmission/Transformers.dss
Redirect p1rhs7_1247/Regulators.dss
Redirect p1rhs7_1247/p1rhs7_1247--p1rdt1291/Regulators.dss
Redirect p1rhs7_1247/p1rhs7_1247--p1rdt7669/Regulators.dss
Redirect p1rhs2_1247/Regulators.dss
Redirect p1rhs2_1247/p1rhs2_1247--p1rdt1528/Regulators.dss
Redirect p1rhs3_1247/Regulators.dss
Redirect p1rhs3_1247/p1rhs3_1247--p1rdt2874/Regulators.dss
Redirect p1rhs3_1247/p1rhs3_1247--p1rdt8208/Regulators.dss
Redirect p1rhs3_1247/p1rhs3_1247--p1rdt3467/Regulators.dss
Redirect p1rhs3_1247/p1rhs3_1247--p1rdt8207/Regulators.dss
Redirect p1rhs1_1247/Regulators.dss
Redirect p1rhs1_1247/p1rhs1_1247--p1rdt6634/Regulators.dss
Redirect p1rhs1_1247/p1rhs1_1247--p1rdt5979/Regulators.dss
Redirect p1rhs4_1247/p1rhs4_1247--p1rdt4715/Regulators.dss
Redirect p1rhs4_1247/p1rhs4_1247--p1rdt5185/Regulators.dss
Redirect p1rhs4_1247/p1rhs4_1247--p1rdt5481/Regulators.dss
Redirect p1rhs4_1247/Regulators.dss
Redirect p1rhs5_1247/Regulators.dss
Redirect p1rhs5_1247/p1rhs5_1247--p1rdt1339/Regulators.dss
Redirect p1rhs5_1247/p1rhs5_1247--p1rdt8064/Regulators.dss
Redirect p1rhs0_1247/Regulators.dss
Redirect p1rhs6_1247/Regulators.dss
Redirect p1rhs4_1247/p1rhs4_1247--p1rdt6999/Loads.dss
Redirect p1rhs4_1247/p1rhs4_1247--p1rdt5851/Loads.dss
Redirect p1rhs4_1247/p1rhs4_1247--p1rdt2300/Loads.dss
Redirect p1rhs4_1247/p1rhs4_1247--p1rdt5481/Loads.dss
Redirect p1rhs4_1247/p1rhs4_1247--p1rdt4715/Loads.dss
Redirect p1rhs4_1247/p1rhs4_1247--p1rdt5185/Loads.dss
Redirect p1rhs1_1247/p1rhs1_1247--p1rdt6634/Loads.dss
Redirect p1rhs1_1247/p1rhs1_1247--p1rdt5979/Loads.dss
Redirect p1rhs1_1247/p1rhs1_1247--p1rdt2397/Loads.dss
Redirect p1rhs1_1247/p1rhs1_1247--p1rdt6578/Loads.dss
Redirect p1rhs7_1247/p1rhs7_1247--p1rdt1161/Loads.dss
Redirect p1rhs7_1247/p1rhs7_1247--p1rdt1291/Loads.dss
Redirect p1rhs7_1247/p1rhs7_1247--p1rdt7669/Loads.dss
Redirect p1rhs2_1247/p1rhs2_1247--p1rdt4805/Loads.dss
Redirect p1rhs2_1247/p1rhs2_1247--p1rdt1528/Loads.dss
Redirect p1rhs2_1247/p1rhs2_1247--p1rdt3426/Loads.dss
Redirect p1rhs2_1247/p1rhs2_1247--p1rdt3039/Loads.dss
Redirect p1rhs0_1247/p1rhs0_1247--p1rdt6854/Loads.dss
Redirect p1rhs0_1247/p1rhs0_1247--p1rdt5663/Loads.dss
Redirect p1rhs6_1247/p1rhs6_1247--p1rdt476/Loads.dss
Redirect p1rhs6_1247/p1rhs6_1247--p1rdt6561/Loads.dss
Redirect p1rhs5_1247/p1rhs5_1247--p1rdt7748/Loads.dss
Redirect p1rhs5_1247/p1rhs5_1247--p1rdt7147/Loads.dss
Redirect p1rhs5_1247/p1rhs5_1247--p1rdt1339/Loads.dss
Redirect p1rhs5_1247/p1rhs5_1247--p1rdt8064/Loads.dss
Redirect p1rhs3_1247/p1rhs3_1247--p1rdt2378/Loads.dss
Redirect p1rhs3_1247/p1rhs3_1247--p1rdt2874/Loads.dss
Redirect p1rhs3_1247/p1rhs3_1247--p1rdt8208/Loads.dss
Redirect p1rhs3_1247/p1rhs3_1247--p1rdt3467/Loads.dss
Redirect p1rhs3_1247/p1rhs3_1247--p1rdt8207/Loads.dss
Redirect p1rhs4_1247/LineCodes.dss
Redirect p1rhs4_1247/p1rhs4_1247--p1rdt6999/LineCodes.dss
Redirect p1rhs4_1247/p1rhs4_1247--p1rdt5851/LineCodes.dss
Redirect p1rhs4_1247/p1rhs4_1247--p1rdt2300/LineCodes.dss
Redirect p1rhs4_1247/p1rhs4_1247--p1rdt5481/LineCodes.dss
Redirect p1rhs4_1247/p1rhs4_1247--p1rdt4715/LineCodes.dss
Redirect p1rhs4_1247/p1rhs4_1247--p1rdt5185/LineCodes.dss
Redirect p1rhs1_1247/LineCodes.dss
Redirect p1rhs1_1247/p1rhs1_1247--p1rdt6634/LineCodes.dss
Redirect p1rhs1_1247/p1rhs1_1247--p1rdt5979/LineCodes.dss
Redirect p1rhs1_1247/p1rhs1_1247--p1rdt2397/LineCodes.dss
Redirect p1rhs1_1247/p1rhs1_1247--p1rdt6578/LineCodes.dss
Redirect p1rhs7_1247/p1rhs7_1247--p1rdt1161/LineCodes.dss
Redirect p1rhs7_1247/LineCodes.dss
Redirect p1rhs7_1247/p1rhs7_1247--p1rdt1291/LineCodes.dss
Redirect p1rhs7_1247/p1rhs7_1247--p1rdt7669/LineCodes.dss
Redirect p1rhs2_1247/LineCodes.dss
Redirect p1rhs2_1247/p1rhs2_1247--p1rdt1528/LineCodes.dss
Redirect p1rhs2_1247/p1rhs2_1247--p1rdt4805/LineCodes.dss
Redirect p1rhs2_1247/p1rhs2_1247--p1rdt3426/LineCodes.dss
Redirect p1rhs2_1247/p1rhs2_1247--p1rdt3039/LineCodes.dss
Redirect p1rhs0_1247/p1rhs0_1247--p1rdt6854/LineCodes.dss
Redirect p1rhs0_1247/LineCodes.dss
Redirect p1rhs0_1247/p1rhs0_1247--p1rdt5663/LineCodes.dss
Redirect p1rhs6_1247/LineCodes.dss
Redirect p1rhs6_1247/p1rhs6_1247--p1rdt476/LineCodes.dss
Redirect p1rhs6_1247/p1rhs6_1247--p1rdt6561/LineCodes.dss
Redirect p1rhs5_1247/LineCodes.dss
Redirect p1rhs5_1247/p1rhs5_1247--p1rdt7147/LineCodes.dss
Redirect p1rhs5_1247/p1rhs5_1247--p1rdt7748/LineCodes.dss
Redirect p1rhs5_1247/p1rhs5_1247--p1rdt1339/LineCodes.dss
Redirect p1rhs5_1247/p1rhs5_1247--p1rdt8064/LineCodes.dss
Redirect p1rhs3_1247/LineCodes.dss
Redirect p1rhs3_1247/p1rhs3_1247--p1rdt2378/LineCodes.dss
Redirect p1rhs3_1247/p1rhs3_1247--p1rdt2874/LineCodes.dss
Redirect p1rhs3_1247/p1rhs3_1247--p1rdt8208/LineCodes.dss
Redirect p1rhs3_1247/p1rhs3_1247--p1rdt3467/LineCodes.dss
Redirect p1rhs3_1247/p1rhs3_1247--p1rdt8207/LineCodes.dss
Redirect subtransmission/LineCodes.dss
Redirect p1rhs4_1247/Lines.dss
Redirect p1rhs4_1247/p1rhs4_1247--p1rdt6999/Lines.dss
Redirect p1rhs4_1247/p1rhs4_1247--p1rdt5851/Lines.dss
Redirect p1rhs4_1247/p1rhs4_1247--p1rdt2300/Lines.dss
Redirect p1rhs4_1247/p1rhs4_1247--p1rdt5481/Lines.dss
Redirect p1rhs4_1247/p1rhs4_1247--p1rdt4715/Lines.dss
Redirect p1rhs4_1247/p1rhs4_1247--p1rdt5185/Lines.dss
Redirect p1rhs1_1247/Lines.dss
Redirect p1rhs1_1247/p1rhs1_1247--p1rdt6634/Lines.dss
Redirect p1rhs1_1247/p1rhs1_1247--p1rdt5979/Lines.dss
Redirect p1rhs1_1247/p1rhs1_1247--p1rdt2397/Lines.dss
Redirect p1rhs1_1247/p1rhs1_1247--p1rdt6578/Lines.dss
Redirect p1rhs7_1247/p1rhs7_1247--p1rdt1161/Lines.dss
Redirect p1rhs7_1247/Lines.dss
Redirect p1rhs7_1247/p1rhs7_1247--p1rdt1291/Lines.dss
Redirect p1rhs7_1247/p1rhs7_1247--p1rdt7669/Lines.dss
Redirect p1rhs2_1247/Lines.dss
Redirect p1rhs2_1247/p1rhs2_1247--p1rdt1528/Lines.dss
Redirect p1rhs2_1247/p1rhs2_1247--p1rdt4805/Lines.dss
Redirect p1rhs2_1247/p1rhs2_1247--p1rdt3426/Lines.dss
Redirect p1rhs2_1247/p1rhs2_1247--p1rdt3039/Lines.dss
Redirect p1rhs0_1247/p1rhs0_1247--p1rdt6854/Lines.dss
Redirect p1rhs0_1247/Lines.dss
Redirect p1rhs0_1247/p1rhs0_1247--p1rdt5663/Lines.dss
Redirect p1rhs6_1247/Lines.dss
Redirect p1rhs6_1247/p1rhs6_1247--p1rdt476/Lines.dss
Redirect p1rhs6_1247/p1rhs6_1247--p1rdt6561/Lines.dss
Redirect p1rhs5_1247/Lines.dss
Redirect p1rhs5_1247/p1rhs5_1247--p1rdt7147/Lines.dss
Redirect p1rhs5_1247/p1rhs5_1247--p1rdt7748/Lines.dss
Redirect p1rhs5_1247/p1rhs5_1247--p1rdt1339/Lines.dss
Redirect p1rhs5_1247/p1rhs5_1247--p1rdt8064/Lines.dss
Redirect p1rhs3_1247/Lines.dss
Redirect p1rhs3_1247/p1rhs3_1247--p1rdt2378/Lines.dss
Redirect p1rhs3_1247/p1rhs3_1247--p1rdt2874/Lines.dss
Redirect p1rhs3_1247/p1rhs3_1247--p1rdt8208/Lines.dss
Redirect p1rhs3_1247/p1rhs3_1247--p1rdt3467/Lines.dss
Redirect p1rhs3_1247/p1rhs3_1247--p1rdt8207/Lines.dss
Redirect subtransmission/Lines.dss

Set Voltagebases=[0.2080002494301389, 0.48, 7.199560000000001, 12.47, 69.0, 230.0]

Calcvoltagebases

Buscoords Buscoords.dss

Solve