electric-grid/physical/synthetic/synAustinTD/models/syn-austin-D_only-v03/P1R/base/opendss/p1rhs4_1247/p1rhs4_1247--p1rdt5851/Transformers.dss
New Transformer.tr(r:p1rdt19-p1rdt19lv) phases=1 windings=3 %loadloss=0.798816 %Noloadloss=0.472 normhkva=27.5 wdg=1 conn=wye bus=p1rdt19.3 Kv=7.199560000000001 kva=25.0 EmergHKVA=37.5 %r=0.266272 wdg=2 conn=wye bus=p1rdt19lv.1.0 Kv=0.120089 kva=25.0 EmergHKVA=37.5 %r=0.532544 wdg=3 conn=wye bus=p1rdt19lv.0.2 Kv=0.120089 kva=25.0 EmergHKVA=37.5 %r=0.532544 XHL=2.4 XLT=2.4 XHT=1.6

New Transformer.tr(r:p1rdt21-p1rdt21lv) phases=1 windings=3 %loadloss=0.798816 %Noloadloss=0.37 normhkva=55.0 wdg=1 conn=wye bus=p1rdt21.2 Kv=7.199560000000001 kva=50.0 EmergHKVA=75.0 %r=0.266272 wdg=2 conn=wye bus=p1rdt21lv.1.0 Kv=0.120089 kva=50.0 EmergHKVA=75.0 %r=0.532544 wdg=3 conn=wye bus=p1rdt21lv.0.2 Kv=0.120089 kva=50.0 EmergHKVA=75.0 %r=0.532544 XHL=2.4 XLT=2.4 XHT=1.6

New Transformer.tr(r:p1rdt22-p1rdt22lv) phases=1 windings=3 %loadloss=0.798816 %Noloadloss=0.37 normhkva=55.0 wdg=1 conn=wye bus=p1rdt22.1 Kv=7.199560000000001 kva=50.0 EmergHKVA=75.0 %r=0.266272 wdg=2 conn=wye bus=p1rdt22lv.1.0 Kv=0.120089 kva=50.0 EmergHKVA=75.0 %r=0.532544 wdg=3 conn=wye bus=p1rdt22lv.0.2 Kv=0.120089 kva=50.0 EmergHKVA=75.0 %r=0.532544 XHL=2.4 XLT=2.4 XHT=1.6

New Transformer.tr(r:p1rdt137-p1rdt137lv) phases=1 windings=3 %loadloss=0.599112 %Noloadloss=0.37 normhkva=55.0 wdg=1 conn=wye bus=p1rdt137.2 Kv=7.199560000000001 kva=50.0 EmergHKVA=75.0 %r=0.199704 wdg=2 conn=wye bus=p1rdt137lv.1.0 Kv=0.120089 kva=50.0 EmergHKVA=75.0 %r=0.399408 wdg=3 conn=wye bus=p1rdt137lv.0.2 Kv=0.120089 kva=50.0 EmergHKVA=75.0 %r=0.399408 XHL=2.4 XLT=2.4 XHT=1.6

New Transformer.tr(r:p1rdt138-p1rdt138lv) phases=1 windings=3 %loadloss=0.798816 %Noloadloss=0.37 normhkva=55.0 wdg=1 conn=wye bus=p1rdt138.3 Kv=7.199560000000001 kva=50.0 EmergHKVA=75.0 %r=0.266272 wdg=2 conn=wye bus=p1rdt138lv.1.0 Kv=0.120089 kva=50.0 EmergHKVA=75.0 %r=0.532544 wdg=3 conn=wye bus=p1rdt138lv.0.2 Kv=0.120089 kva=50.0 EmergHKVA=75.0 %r=0.532544 XHL=2.4 XLT=2.4 XHT=1.6

New Transformer.tr(r:p1rdt139-p1rdt139lv) phases=1 windings=3 %loadloss=0.798816 %Noloadloss=0.472 normhkva=27.5 wdg=1 conn=wye bus=p1rdt139.3 Kv=7.199560000000001 kva=25.0 EmergHKVA=37.5 %r=0.266272 wdg=2 conn=wye bus=p1rdt139lv.1.0 Kv=0.120089 kva=25.0 EmergHKVA=37.5 %r=0.532544 wdg=3 conn=wye bus=p1rdt139lv.0.2 Kv=0.120089 kva=25.0 EmergHKVA=37.5 %r=0.532544 XHL=2.4 XLT=2.4 XHT=1.6

New Transformer.tr(r:p1rdt140-p1rdt140lv) phases=1 windings=3 %loadloss=0.798816 %Noloadloss=0.472 normhkva=27.5 wdg=1 conn=wye bus=p1rdt140.2 Kv=7.199560000000001 kva=25.0 EmergHKVA=37.5 %r=0.266272 wdg=2 conn=wye bus=p1rdt140lv.1.0 Kv=0.120089 kva=25.0 EmergHKVA=37.5 %r=0.532544 wdg=3 conn=wye bus=p1rdt140lv.0.2 Kv=0.120089 kva=25.0 EmergHKVA=37.5 %r=0.532544 XHL=2.4 XLT=2.4 XHT=1.6

New Transformer.tr(r:p1rdt141-p1rdt141lv) phases=1 windings=3 %loadloss=0.798816 %Noloadloss=0.472 normhkva=27.5 wdg=1 conn=wye bus=p1rdt141.3 Kv=7.199560000000001 kva=25.0 EmergHKVA=37.5 %r=0.266272 wdg=2 conn=wye bus=p1rdt141lv.1.0 Kv=0.120089 kva=25.0 EmergHKVA=37.5 %r=0.532544 wdg=3 conn=wye bus=p1rdt141lv.0.2 Kv=0.120089 kva=25.0 EmergHKVA=37.5 %r=0.532544 XHL=2.4 XLT=2.4 XHT=1.6

New Transformer.tr(r:p1rdt142-p1rdt142lv) phases=1 windings=3 %loadloss=0.798816 %Noloadloss=0.472 normhkva=27.5 wdg=1 conn=wye bus=p1rdt142.1 Kv=7.199560000000001 kva=25.0 EmergHKVA=37.5 %r=0.266272 wdg=2 conn=wye bus=p1rdt142lv.1.0 Kv=0.120089 kva=25.0 EmergHKVA=37.5 %r=0.532544 wdg=3 conn=wye bus=p1rdt142lv.0.2 Kv=0.120089 kva=25.0 EmergHKVA=37.5 %r=0.532544 XHL=2.4 XLT=2.4 XHT=1.6

New Transformer.tr(r:p1rdt279-p1rdt279lv) phases=1 windings=3 %loadloss=0.599112 %Noloadloss=0.37 normhkva=55.0 wdg=1 conn=wye bus=p1rdt279.3 Kv=7.199560000000001 kva=50.0 EmergHKVA=75.0 %r=0.199704 wdg=2 conn=wye bus=p1rdt279lv.1.0 Kv=0.120089 kva=50.0 EmergHKVA=75.0 %r=0.399408 wdg=3 conn=wye bus=p1rdt279lv.0.2 Kv=0.120089 kva=50.0 EmergHKVA=75.0 %r=0.399408 XHL=2.4 XLT=2.4 XHT=1.6

New Transformer.tr(r:p1rdt280-p1rdt280lv) phases=1 windings=3 %loadloss=0.798816 %Noloadloss=0.472 normhkva=27.5 wdg=1 conn=wye bus=p1rdt280.3 Kv=7.199560000000001 kva=25.0 EmergHKVA=37.5 %r=0.266272 wdg=2 conn=wye bus=p1rdt280lv.1.0 Kv=0.120089 kva=25.0 EmergHKVA=37.5 %r=0.532544 wdg=3 conn=wye bus=p1rdt280lv.0.2 Kv=0.120089 kva=25.0 EmergHKVA=37.5 %r=0.532544 XHL=2.4 XLT=2.4 XHT=1.6

New Transformer.tr(r:p1rdt402-p1rdt402lv) phases=1 windings=3 %loadloss=0.798816 %Noloadloss=0.472 normhkva=27.5 wdg=1 conn=wye bus=p1rdt402.2 Kv=7.199560000000001 kva=25.0 EmergHKVA=37.5 %r=0.266272 wdg=2 conn=wye bus=p1rdt402lv.1.0 Kv=0.120089 kva=25.0 EmergHKVA=37.5 %r=0.532544 wdg=3 conn=wye bus=p1rdt402lv.0.2 Kv=0.120089 kva=25.0 EmergHKVA=37.5 %r=0.532544 XHL=2.4 XLT=2.4 XHT=1.6

New Transformer.tr(r:p1rdt403-p1rdt403lv) phases=1 windings=3 %loadloss=0.798816 %Noloadloss=0.472 normhkva=27.5 wdg=1 conn=wye bus=p1rdt403.1 Kv=7.199560000000001 kva=25.0 EmergHKVA=37.5 %r=0.266272 wdg=2 conn=wye bus=p1rdt403lv.1.0 Kv=0.120089 kva=25.0 EmergHKVA=37.5 %r=0.532544 wdg=3 conn=wye bus=p1rdt403lv.0.2 Kv=0.120089 kva=25.0 EmergHKVA=37.5 %r=0.532544 XHL=2.4 XLT=2.4 XHT=1.6

New Transformer.tr(r:p1rdt404-p1rdt404lv) phases=1 windings=3 %loadloss=0.599112 %Noloadloss=0.37 normhkva=55.0 wdg=1 conn=wye bus=p1rdt404.1 Kv=7.199560000000001 kva=50.0 EmergHKVA=75.0 %r=0.199704 wdg=2 conn=wye bus=p1rdt404lv.1.0 Kv=0.120089 kva=50.0 EmergHKVA=75.0 %r=0.399408 wdg=3 conn=wye bus=p1rdt404lv.0.2 Kv=0.120089 kva=50.0 EmergHKVA=75.0 %r=0.399408 XHL=2.4 XLT=2.4 XHT=1.6

New Transformer.tr(r:p1rdt526-p1rdt526lv) phases=1 windings=3 %loadloss=0.798816 %Noloadloss=0.472 normhkva=27.5 wdg=1 conn=wye bus=p1rdt526.1 Kv=7.199560000000001 kva=25.0 EmergHKVA=37.5 %r=0.266272 wdg=2 conn=wye bus=p1rdt526lv.1.0 Kv=0.120089 kva=25.0 EmergHKVA=37.5 %r=0.532544 wdg=3 conn=wye bus=p1rdt526lv.0.2 Kv=0.120089 kva=25.0 EmergHKVA=37.5 %r=0.532544 XHL=2.4 XLT=2.4 XHT=1.6

New Transformer.tr(r:p1rdt527-p1rdt527lv) phases=1 windings=3 %loadloss=0.798816 %Noloadloss=0.472 normhkva=27.5 wdg=1 conn=wye bus=p1rdt527.1 Kv=7.199560000000001 kva=25.0 EmergHKVA=37.5 %r=0.266272 wdg=2 conn=wye bus=p1rdt527lv.1.0 Kv=0.120089 kva=25.0 EmergHKVA=37.5 %r=0.532544 wdg=3 conn=wye bus=p1rdt527lv.0.2 Kv=0.120089 kva=25.0 EmergHKVA=37.5 %r=0.532544 XHL=2.4 XLT=2.4 XHT=1.6

New Transformer.tr(r:p1rdt528-p1rdt528lv) phases=1 windings=3 %loadloss=0.798816 %Noloadloss=0.472 normhkva=27.5 wdg=1 conn=wye bus=p1rdt528.1 Kv=7.199560000000001 kva=25.0 EmergHKVA=37.5 %r=0.266272 wdg=2 conn=wye bus=p1rdt528lv.1.0 Kv=0.120089 kva=25.0 EmergHKVA=37.5 %r=0.532544 wdg=3 conn=wye bus=p1rdt528lv.0.2 Kv=0.120089 kva=25.0 EmergHKVA=37.5 %r=0.532544 XHL=2.4 XLT=2.4 XHT=1.6

New Transformer.tr(r:p1rdt529-p1rdt529lv) phases=1 windings=3 %loadloss=0.798816 %Noloadloss=0.472 normhkva=27.5 wdg=1 conn=wye bus=p1rdt529.3 Kv=7.199560000000001 kva=25.0 EmergHKVA=37.5 %r=0.266272 wdg=2 conn=wye bus=p1rdt529lv.1.0 Kv=0.120089 kva=25.0 EmergHKVA=37.5 %r=0.532544 wdg=3 conn=wye bus=p1rdt529lv.0.2 Kv=0.120089 kva=25.0 EmergHKVA=37.5 %r=0.532544 XHL=2.4 XLT=2.4 XHT=1.6

New Transformer.tr(r:p1rdt530-p1rdt530lv) phases=1 windings=3 %loadloss=1.248151 %Noloadloss=0.68 normhkva=11.0 wdg=1 conn=wye bus=p1rdt530.1 Kv=7.199560000000001 kva=10.0 EmergHKVA=15.0 %r=0.41605 wdg=2 conn=wye bus=p1rdt530lv.1.0 Kv=0.120089 kva=10.0 EmergHKVA=15.0 %r=0.832101 wdg=3 conn=wye bus=p1rdt530lv.0.2 Kv=0.120089 kva=10.0 EmergHKVA=15.0 %r=0.832101 XHL=1.08 XLT=1.08 XHT=0.72

New Transformer.tr(r:p1rdt652-p1rdt652lv) phases=1 windings=3 %loadloss=1.248151 %Noloadloss=0.68 normhkva=11.0 wdg=1 conn=wye bus=p1rdt652.3 Kv=7.199560000000001 kva=10.0 EmergHKVA=15.0 %r=0.41605 wdg=2 conn=wye bus=p1rdt652lv.1.0 Kv=0.120089 kva=10.0 EmergHKVA=15.0 %r=0.832101 wdg=3 conn=wye bus=p1rdt652lv.0.2 Kv=0.120089 kva=10.0 EmergHKVA=15.0 %r=0.832101 XHL=1.08 XLT=1.08 XHT=0.72

New Transformer.tr(r:p1rdt654-p1rdt654lv) phases=1 windings=3 %loadloss=0.798816 %Noloadloss=0.472 normhkva=27.5 wdg=1 conn=wye bus=p1rdt654.3 Kv=7.199560000000001 kva=25.0 EmergHKVA=37.5 %r=0.266272 wdg=2 conn=wye bus=p1rdt654lv.1.0 Kv=0.120089 kva=25.0 EmergHKVA=37.5 %r=0.532544 wdg=3 conn=wye bus=p1rdt654lv.0.2 Kv=0.120089 kva=25.0 EmergHKVA=37.5 %r=0.532544 XHL=2.4 XLT=2.4 XHT=1.6

New Transformer.tr(r:p1rdt655-p1rdt655lv) phases=1 windings=3 %loadloss=0.798816 %Noloadloss=0.472 normhkva=27.5 wdg=1 conn=wye bus=p1rdt655.1 Kv=7.199560000000001 kva=25.0 EmergHKVA=37.5 %r=0.266272 wdg=2 conn=wye bus=p1rdt655lv.1.0 Kv=0.120089 kva=25.0 EmergHKVA=37.5 %r=0.532544 wdg=3 conn=wye bus=p1rdt655lv.0.2 Kv=0.120089 kva=25.0 EmergHKVA=37.5 %r=0.532544 XHL=2.4 XLT=2.4 XHT=1.6

New Transformer.tr(r:p1rdt656-p1rdt656lv) phases=1 windings=3 %loadloss=0.798816 %Noloadloss=0.37 normhkva=55.0 wdg=1 conn=wye bus=p1rdt656.3 Kv=7.199560000000001 kva=50.0 EmergHKVA=75.0 %r=0.266272 wdg=2 conn=wye bus=p1rdt656lv.1.0 Kv=0.120089 kva=50.0 EmergHKVA=75.0 %r=0.532544 wdg=3 conn=wye bus=p1rdt656lv.0.2 Kv=0.120089 kva=50.0 EmergHKVA=75.0 %r=0.532544 XHL=2.4 XLT=2.4 XHT=1.6

New Transformer.tr(r:p1rdt657-p1rdt657lv) phases=1 windings=3 %loadloss=0.798816 %Noloadloss=0.472 normhkva=27.5 wdg=1 conn=wye bus=p1rdt657.2 Kv=7.199560000000001 kva=25.0 EmergHKVA=37.5 %r=0.266272 wdg=2 conn=wye bus=p1rdt657lv.1.0 Kv=0.120089 kva=25.0 EmergHKVA=37.5 %r=0.532544 wdg=3 conn=wye bus=p1rdt657lv.0.2 Kv=0.120089 kva=25.0 EmergHKVA=37.5 %r=0.532544 XHL=2.4 XLT=2.4 XHT=1.6

New Transformer.tr(r:p1rdt807-p1rdt807lv) phases=1 windings=3 %loadloss=0.798816 %Noloadloss=0.472 normhkva=27.5 wdg=1 conn=wye bus=p1rdt807.2 Kv=7.199560000000001 kva=25.0 EmergHKVA=37.5 %r=0.266272 wdg=2 conn=wye bus=p1rdt807lv.1.0 Kv=0.120089 kva=25.0 EmergHKVA=37.5 %r=0.532544 wdg=3 conn=wye bus=p1rdt807lv.0.2 Kv=0.120089 kva=25.0 EmergHKVA=37.5 %r=0.532544 XHL=2.4 XLT=2.4 XHT=1.6

New Transformer.tr(r:p1rdt924-p1rdt924lv) phases=1 windings=3 %loadloss=1.248151 %Noloadloss=0.68 normhkva=11.0 wdg=1 conn=wye bus=p1rdt924.3 Kv=7.199560000000001 kva=10.0 EmergHKVA=15.0 %r=0.41605 wdg=2 conn=wye bus=p1rdt924lv.1.0 Kv=0.120089 kva=10.0 EmergHKVA=15.0 %r=0.832101 wdg=3 conn=wye bus=p1rdt924lv.0.2 Kv=0.120089 kva=10.0 EmergHKVA=15.0 %r=0.832101 XHL=1.08 XLT=1.08 XHT=0.72

New Transformer.tr(r:p1rdt1035-p1rdt1035lv) phases=1 windings=3 %loadloss=0.798816 %Noloadloss=0.472 normhkva=27.5 wdg=1 conn=wye bus=p1rdt1035.3 Kv=7.199560000000001 kva=25.0 EmergHKVA=37.5 %r=0.266272 wdg=2 conn=wye bus=p1rdt1035lv.1.0 Kv=0.120089 kva=25.0 EmergHKVA=37.5 %r=0.532544 wdg=3 conn=wye bus=p1rdt1035lv.0.2 Kv=0.120089 kva=25.0 EmergHKVA=37.5 %r=0.532544 XHL=2.4 XLT=2.4 XHT=1.6

New Transformer.tr(r:p1rdt1036-p1rdt1036lv) phases=1 windings=3 %loadloss=0.798816 %Noloadloss=0.472 normhkva=27.5 wdg=1 conn=wye bus=p1rdt1036.1 Kv=7.199560000000001 kva=25.0 EmergHKVA=37.5 %r=0.266272 wdg=2 conn=wye bus=p1rdt1036lv.1.0 Kv=0.120089 kva=25.0 EmergHKVA=37.5 %r=0.532544 wdg=3 conn=wye bus=p1rdt1036lv.0.2 Kv=0.120089 kva=25.0 EmergHKVA=37.5 %r=0.532544 XHL=2.4 XLT=2.4 XHT=1.6

New Transformer.tr(r:p1rdt1037-p1rdt1037lv) phases=1 windings=3 %loadloss=0.798816 %Noloadloss=0.472 normhkva=27.5 wdg=1 conn=wye bus=p1rdt1037.1 Kv=7.199560000000001 kva=25.0 EmergHKVA=37.5 %r=0.266272 wdg=2 conn=wye bus=p1rdt1037lv.1.0 Kv=0.120089 kva=25.0 EmergHKVA=37.5 %r=0.532544 wdg=3 conn=wye bus=p1rdt1037lv.0.2 Kv=0.120089 kva=25.0 EmergHKVA=37.5 %r=0.532544 XHL=2.4 XLT=2.4 XHT=1.6

New Transformer.tr(r:p1rdt1153-p1rdt1153lv) phases=1 windings=3 %loadloss=0.798816 %Noloadloss=0.37 normhkva=55.0 wdg=1 conn=wye bus=p1rdt1153.1 Kv=7.199560000000001 kva=50.0 EmergHKVA=75.0 %r=0.266272 wdg=2 conn=wye bus=p1rdt1153lv.1.0 Kv=0.120089 kva=50.0 EmergHKVA=75.0 %r=0.532544 wdg=3 conn=wye bus=p1rdt1153lv.0.2 Kv=0.120089 kva=50.0 EmergHKVA=75.0 %r=0.532544 XHL=2.4 XLT=2.4 XHT=1.6

New Transformer.tr(r:p1rdt1154-p1rdt1154lv) phases=1 windings=3 %loadloss=1.248151 %Noloadloss=0.68 normhkva=11.0 wdg=1 conn=wye bus=p1rdt1154.2 Kv=7.199560000000001 kva=10.0 EmergHKVA=15.0 %r=0.41605 wdg=2 conn=wye bus=p1rdt1154lv.1.0 Kv=0.120089 kva=10.0 EmergHKVA=15.0 %r=0.832101 wdg=3 conn=wye bus=p1rdt1154lv.0.2 Kv=0.120089 kva=10.0 EmergHKVA=15.0 %r=0.832101 XHL=1.08 XLT=1.08 XHT=0.72

New Transformer.tr(r:p1rdt1155-p1rdt1155lv) phases=1 windings=3 %loadloss=0.798816 %Noloadloss=0.472 normhkva=27.5 wdg=1 conn=wye bus=p1rdt1155.1 Kv=7.199560000000001 kva=25.0 EmergHKVA=37.5 %r=0.266272 wdg=2 conn=wye bus=p1rdt1155lv.1.0 Kv=0.120089 kva=25.0 EmergHKVA=37.5 %r=0.532544 wdg=3 conn=wye bus=p1rdt1155lv.0.2 Kv=0.120089 kva=25.0 EmergHKVA=37.5 %r=0.532544 XHL=2.4 XLT=2.4 XHT=1.6

New Transformer.tr(r:p1rdt1274-p1rdt1274lv) phases=1 windings=3 %loadloss=1.248151 %Noloadloss=0.68 normhkva=11.0 wdg=1 conn=wye bus=p1rdt1274.3 Kv=7.199560000000001 kva=10.0 EmergHKVA=15.0 %r=0.41605 wdg=2 conn=wye bus=p1rdt1274lv.1.0 Kv=0.120089 kva=10.0 EmergHKVA=15.0 %r=0.832101 wdg=3 conn=wye bus=p1rdt1274lv.0.2 Kv=0.120089 kva=10.0 EmergHKVA=15.0 %r=0.832101 XHL=1.08 XLT=1.08 XHT=0.72

New Transformer.tr(r:p1rdt1400-p1rdt1400lv) phases=1 windings=3 %loadloss=0.599112 %Noloadloss=0.37 normhkva=55.0 wdg=1 conn=wye bus=p1rdt1400.2 Kv=7.199560000000001 kva=50.0 EmergHKVA=75.0 %r=0.199704 wdg=2 conn=wye bus=p1rdt1400lv.1.0 Kv=0.120089 kva=50.0 EmergHKVA=75.0 %r=0.399408 wdg=3 conn=wye bus=p1rdt1400lv.0.2 Kv=0.120089 kva=50.0 EmergHKVA=75.0 %r=0.399408 XHL=2.4 XLT=2.4 XHT=1.6

New Transformer.tr(r:p1rdt1402-p1rdt1402lv) phases=1 windings=3 %loadloss=0.798816 %Noloadloss=0.472 normhkva=27.5 wdg=1 conn=wye bus=p1rdt1402.3 Kv=7.199560000000001 kva=25.0 EmergHKVA=37.5 %r=0.266272 wdg=2 conn=wye bus=p1rdt1402lv.1.0 Kv=0.120089 kva=25.0 EmergHKVA=37.5 %r=0.532544 wdg=3 conn=wye bus=p1rdt1402lv.0.2 Kv=0.120089 kva=25.0 EmergHKVA=37.5 %r=0.532544 XHL=2.4 XLT=2.4 XHT=1.6

New Transformer.tr(r:p1rdt1613-p1rdt1613lv) phases=1 windings=3 %loadloss=0.798816 %Noloadloss=0.472 normhkva=27.5 wdg=1 conn=wye bus=p1rdt1613.1 Kv=7.199560000000001 kva=25.0 EmergHKVA=37.5 %r=0.266272 wdg=2 conn=wye bus=p1rdt1613lv.1.0 Kv=0.120089 kva=25.0 EmergHKVA=37.5 %r=0.532544 wdg=3 conn=wye bus=p1rdt1613lv.0.2 Kv=0.120089 kva=25.0 EmergHKVA=37.5 %r=0.532544 XHL=2.4 XLT=2.4 XHT=1.6

New Transformer.tr(r:p1rdt1614-p1rdt1614lv) phases=1 windings=3 %loadloss=0.798816 %Noloadloss=0.472 normhkva=27.5 wdg=1 conn=wye bus=p1rdt1614.2 Kv=7.199560000000001 kva=25.0 EmergHKVA=37.5 %r=0.266272 wdg=2 conn=wye bus=p1rdt1614lv.1.0 Kv=0.120089 kva=25.0 EmergHKVA=37.5 %r=0.532544 wdg=3 conn=wye bus=p1rdt1614lv.0.2 Kv=0.120089 kva=25.0 EmergHKVA=37.5 %r=0.532544 XHL=2.4 XLT=2.4 XHT=1.6

New Transformer.tr(r:p1rdt1615-p1rdt1615lv) phases=1 windings=3 %loadloss=0.798816 %Noloadloss=0.472 normhkva=27.5 wdg=1 conn=wye bus=p1rdt1615.1 Kv=7.199560000000001 kva=25.0 EmergHKVA=37.5 %r=0.266272 wdg=2 conn=wye bus=p1rdt1615lv.1.0 Kv=0.120089 kva=25.0 EmergHKVA=37.5 %r=0.532544 wdg=3 conn=wye bus=p1rdt1615lv.0.2 Kv=0.120089 kva=25.0 EmergHKVA=37.5 %r=0.532544 XHL=2.4 XLT=2.4 XHT=1.6

New Transformer.tr(r:p1rdt1721-p1rdt1721lv) phases=1 windings=3 %loadloss=0.798816 %Noloadloss=0.472 normhkva=27.5 wdg=1 conn=wye bus=p1rdt1721.1 Kv=7.199560000000001 kva=25.0 EmergHKVA=37.5 %r=0.266272 wdg=2 conn=wye bus=p1rdt1721lv.1.0 Kv=0.120089 kva=25.0 EmergHKVA=37.5 %r=0.532544 wdg=3 conn=wye bus=p1rdt1721lv.0.2 Kv=0.120089 kva=25.0 EmergHKVA=37.5 %r=0.532544 XHL=2.4 XLT=2.4 XHT=1.6

New Transformer.tr(r:p1rdt1722-p1rdt1722lv) phases=1 windings=3 %loadloss=0.798816 %Noloadloss=0.472 normhkva=27.5 wdg=1 conn=wye bus=p1rdt1722.3 Kv=7.199560000000001 kva=25.0 EmergHKVA=37.5 %r=0.266272 wdg=2 conn=wye bus=p1rdt1722lv.1.0 Kv=0.120089 kva=25.0 EmergHKVA=37.5 %r=0.532544 wdg=3 conn=wye bus=p1rdt1722lv.0.2 Kv=0.120089 kva=25.0 EmergHKVA=37.5 %r=0.532544 XHL=2.4 XLT=2.4 XHT=1.6

New Transformer.tr(r:p1rdt1723-p1rdt1723lv) phases=1 windings=3 %loadloss=0.798816 %Noloadloss=0.472 normhkva=27.5 wdg=1 conn=wye bus=p1rdt1723.3 Kv=7.199560000000001 kva=25.0 EmergHKVA=37.5 %r=0.266272 wdg=2 conn=wye bus=p1rdt1723lv.1.0 Kv=0.120089 kva=25.0 EmergHKVA=37.5 %r=0.532544 wdg=3 conn=wye bus=p1rdt1723lv.0.2 Kv=0.120089 kva=25.0 EmergHKVA=37.5 %r=0.532544 XHL=2.4 XLT=2.4 XHT=1.6

New Transformer.tr(r:p1rdt1724-p1rdt1724lv) phases=1 windings=3 %loadloss=0.798816 %Noloadloss=0.472 normhkva=27.5 wdg=1 conn=wye bus=p1rdt1724.1 Kv=7.199560000000001 kva=25.0 EmergHKVA=37.5 %r=0.266272 wdg=2 conn=wye bus=p1rdt1724lv.1.0 Kv=0.120089 kva=25.0 EmergHKVA=37.5 %r=0.532544 wdg=3 conn=wye bus=p1rdt1724lv.0.2 Kv=0.120089 kva=25.0 EmergHKVA=37.5 %r=0.532544 XHL=2.4 XLT=2.4 XHT=1.6

New Transformer.tr(r:p1rdt1725-p1rdt1725lv) phases=1 windings=3 %loadloss=0.798816 %Noloadloss=0.472 normhkva=27.5 wdg=1 conn=wye bus=p1rdt1725.2 Kv=7.199560000000001 kva=25.0 EmergHKVA=37.5 %r=0.266272 wdg=2 conn=wye bus=p1rdt1725lv.1.0 Kv=0.120089 kva=25.0 EmergHKVA=37.5 %r=0.532544 wdg=3 conn=wye bus=p1rdt1725lv.0.2 Kv=0.120089 kva=25.0 EmergHKVA=37.5 %r=0.532544 XHL=2.4 XLT=2.4 XHT=1.6

New Transformer.tr(r:p1rdt1842-p1rdt1842lv) phases=1 windings=3 %loadloss=0.798816 %Noloadloss=0.472 normhkva=27.5 wdg=1 conn=wye bus=p1rdt1842.2 Kv=7.199560000000001 kva=25.0 EmergHKVA=37.5 %r=0.266272 wdg=2 conn=wye bus=p1rdt1842lv.1.0 Kv=0.120089 kva=25.0 EmergHKVA=37.5 %r=0.532544 wdg=3 conn=wye bus=p1rdt1842lv.0.2 Kv=0.120089 kva=25.0 EmergHKVA=37.5 %r=0.532544 XHL=2.4 XLT=2.4 XHT=1.6

New Transformer.tr(r:p1rdt1843-p1rdt1843lv) phases=1 windings=3 %loadloss=0.798816 %Noloadloss=0.37 normhkva=55.0 wdg=1 conn=wye bus=p1rdt1843.3 Kv=7.199560000000001 kva=50.0 EmergHKVA=75.0 %r=0.266272 wdg=2 conn=wye bus=p1rdt1843lv.1.0 Kv=0.120089 kva=50.0 EmergHKVA=75.0 %r=0.532544 wdg=3 conn=wye bus=p1rdt1843lv.0.2 Kv=0.120089 kva=50.0 EmergHKVA=75.0 %r=0.532544 XHL=2.4 XLT=2.4 XHT=1.6

New Transformer.tr(r:p1rdt1844-p1rdt1844lv) phases=1 windings=3 %loadloss=0.798816 %Noloadloss=0.472 normhkva=27.5 wdg=1 conn=wye bus=p1rdt1844.3 Kv=7.199560000000001 kva=25.0 EmergHKVA=37.5 %r=0.266272 wdg=2 conn=wye bus=p1rdt1844lv.1.0 Kv=0.120089 kva=25.0 EmergHKVA=37.5 %r=0.532544 wdg=3 conn=wye bus=p1rdt1844lv.0.2 Kv=0.120089 kva=25.0 EmergHKVA=37.5 %r=0.532544 XHL=2.4 XLT=2.4 XHT=1.6

New Transformer.tr(r:p1rdt1953-p1rdt1953lv) phases=1 windings=3 %loadloss=0.599112 %Noloadloss=0.37 normhkva=55.0 wdg=1 conn=wye bus=p1rdt1953.3 Kv=7.199560000000001 kva=50.0 EmergHKVA=75.0 %r=0.199704 wdg=2 conn=wye bus=p1rdt1953lv.1.0 Kv=0.120089 kva=50.0 EmergHKVA=75.0 %r=0.399408 wdg=3 conn=wye bus=p1rdt1953lv.0.2 Kv=0.120089 kva=50.0 EmergHKVA=75.0 %r=0.399408 XHL=2.4 XLT=2.4 XHT=1.6

New Transformer.tr(r:p1rdt1954-p1rdt1954lv) phases=1 windings=3 %loadloss=0.798816 %Noloadloss=0.472 normhkva=27.5 wdg=1 conn=wye bus=p1rdt1954.2 Kv=7.199560000000001 kva=25.0 EmergHKVA=37.5 %r=0.266272 wdg=2 conn=wye bus=p1rdt1954lv.1.0 Kv=0.120089 kva=25.0 EmergHKVA=37.5 %r=0.532544 wdg=3 conn=wye bus=p1rdt1954lv.0.2 Kv=0.120089 kva=25.0 EmergHKVA=37.5 %r=0.532544 XHL=2.4 XLT=2.4 XHT=1.6

New Transformer.tr(r:p1rdt2075-p1rdt2075lv) phases=1 windings=3 %loadloss=0.798816 %Noloadloss=0.472 normhkva=27.5 wdg=1 conn=wye bus=p1rdt2075.3 Kv=7.199560000000001 kva=25.0 EmergHKVA=37.5 %r=0.266272 wdg=2 conn=wye bus=p1rdt2075lv.1.0 Kv=0.120089 kva=25.0 EmergHKVA=37.5 %r=0.532544 wdg=3 conn=wye bus=p1rdt2075lv.0.2 Kv=0.120089 kva=25.0 EmergHKVA=37.5 %r=0.532544 XHL=2.4 XLT=2.4 XHT=1.6

New Transformer.tr(r:p1rdt2194-p1rdt2194lv) phases=1 windings=3 %loadloss=0.798816 %Noloadloss=0.472 normhkva=27.5 wdg=1 conn=wye bus=p1rdt2194.1 Kv=7.199560000000001 kva=25.0 EmergHKVA=37.5 %r=0.266272 wdg=2 conn=wye bus=p1rdt2194lv.1.0 Kv=0.120089 kva=25.0 EmergHKVA=37.5 %r=0.532544 wdg=3 conn=wye bus=p1rdt2194lv.0.2 Kv=0.120089 kva=25.0 EmergHKVA=37.5 %r=0.532544 XHL=2.4 XLT=2.4 XHT=1.6

New Transformer.tr(r:p1rdt2195-p1rdt2195lv) phases=1 windings=3 %loadloss=0.798816 %Noloadloss=0.37 normhkva=55.0 wdg=1 conn=wye bus=p1rdt2195.1 Kv=7.199560000000001 kva=50.0 EmergHKVA=75.0 %r=0.266272 wdg=2 conn=wye bus=p1rdt2195lv.1.0 Kv=0.120089 kva=50.0 EmergHKVA=75.0 %r=0.532544 wdg=3 conn=wye bus=p1rdt2195lv.0.2 Kv=0.120089 kva=50.0 EmergHKVA=75.0 %r=0.532544 XHL=2.4 XLT=2.4 XHT=1.6

New Transformer.tr(r:p1rdt2295-p1rdt2295lv) phases=1 windings=3 %loadloss=0.798816 %Noloadloss=0.472 normhkva=27.5 wdg=1 conn=wye bus=p1rdt2295.1 Kv=7.199560000000001 kva=25.0 EmergHKVA=37.5 %r=0.266272 wdg=2 conn=wye bus=p1rdt2295lv.1.0 Kv=0.120089 kva=25.0 EmergHKVA=37.5 %r=0.532544 wdg=3 conn=wye bus=p1rdt2295lv.0.2 Kv=0.120089 kva=25.0 EmergHKVA=37.5 %r=0.532544 XHL=2.4 XLT=2.4 XHT=1.6

New Transformer.tr(r:p1rdt2296-p1rdt2296lv) phases=1 windings=3 %loadloss=0.798816 %Noloadloss=0.472 normhkva=27.5 wdg=1 conn=wye bus=p1rdt2296.3 Kv=7.199560000000001 kva=25.0 EmergHKVA=37.5 %r=0.266272 wdg=2 conn=wye bus=p1rdt2296lv.1.0 Kv=0.120089 kva=25.0 EmergHKVA=37.5 %r=0.532544 wdg=3 conn=wye bus=p1rdt2296lv.0.2 Kv=0.120089 kva=25.0 EmergHKVA=37.5 %r=0.532544 XHL=2.4 XLT=2.4 XHT=1.6

New Transformer.tr(r:p1rdt2297-p1rdt2297lv) phases=1 windings=3 %loadloss=0.798816 %Noloadloss=0.472 normhkva=27.5 wdg=1 conn=wye bus=p1rdt2297.1 Kv=7.199560000000001 kva=25.0 EmergHKVA=37.5 %r=0.266272 wdg=2 conn=wye bus=p1rdt2297lv.1.0 Kv=0.120089 kva=25.0 EmergHKVA=37.5 %r=0.532544 wdg=3 conn=wye bus=p1rdt2297lv.0.2 Kv=0.120089 kva=25.0 EmergHKVA=37.5 %r=0.532544 XHL=2.4 XLT=2.4 XHT=1.6

New Transformer.tr(r:p1rdt2403-p1rdt2403lv) phases=1 windings=3 %loadloss=0.798816 %Noloadloss=0.472 normhkva=27.5 wdg=1 conn=wye bus=p1rdt2403.3 Kv=7.199560000000001 kva=25.0 EmergHKVA=37.5 %r=0.266272 wdg=2 conn=wye bus=p1rdt2403lv.1.0 Kv=0.120089 kva=25.0 EmergHKVA=37.5 %r=0.532544 wdg=3 conn=wye bus=p1rdt2403lv.0.2 Kv=0.120089 kva=25.0 EmergHKVA=37.5 %r=0.532544 XHL=2.4 XLT=2.4 XHT=1.6

New Transformer.tr(r:p1rdt2404-p1rdt2404lv) phases=1 windings=3 %loadloss=0.798816 %Noloadloss=0.472 normhkva=27.5 wdg=1 conn=wye bus=p1rdt2404.3 Kv=7.199560000000001 kva=25.0 EmergHKVA=37.5 %r=0.266272 wdg=2 conn=wye bus=p1rdt2404lv.1.0 Kv=0.120089 kva=25.0 EmergHKVA=37.5 %r=0.532544 wdg=3 conn=wye bus=p1rdt2404lv.0.2 Kv=0.120089 kva=25.0 EmergHKVA=37.5 %r=0.532544 XHL=2.4 XLT=2.4 XHT=1.6

New Transformer.tr(r:p1rdt2509-p1rdt2509lv) phases=1 windings=3 %loadloss=0.599112 %Noloadloss=0.37 normhkva=55.0 wdg=1 conn=wye bus=p1rdt2509.3 Kv=7.199560000000001 kva=50.0 EmergHKVA=75.0 %r=0.199704 wdg=2 conn=wye bus=p1rdt2509lv.1.0 Kv=0.120089 kva=50.0 EmergHKVA=75.0 %r=0.399408 wdg=3 conn=wye bus=p1rdt2509lv.0.2 Kv=0.120089 kva=50.0 EmergHKVA=75.0 %r=0.399408 XHL=2.4 XLT=2.4 XHT=1.6

New Transformer.tr(r:p1rdt2510-p1rdt2510lv) phases=1 windings=3 %loadloss=0.798816 %Noloadloss=0.37 normhkva=55.0 wdg=1 conn=wye bus=p1rdt2510.1 Kv=7.199560000000001 kva=50.0 EmergHKVA=75.0 %r=0.266272 wdg=2 conn=wye bus=p1rdt2510lv.1.0 Kv=0.120089 kva=50.0 EmergHKVA=75.0 %r=0.532544 wdg=3 conn=wye bus=p1rdt2510lv.0.2 Kv=0.120089 kva=50.0 EmergHKVA=75.0 %r=0.532544 XHL=2.4 XLT=2.4 XHT=1.6

New Transformer.tr(r:p1rdt2511-p1rdt2511lv) phases=1 windings=3 %loadloss=0.798816 %Noloadloss=0.472 normhkva=27.5 wdg=1 conn=wye bus=p1rdt2511.3 Kv=7.199560000000001 kva=25.0 EmergHKVA=37.5 %r=0.266272 wdg=2 conn=wye bus=p1rdt2511lv.1.0 Kv=0.120089 kva=25.0 EmergHKVA=37.5 %r=0.532544 wdg=3 conn=wye bus=p1rdt2511lv.0.2 Kv=0.120089 kva=25.0 EmergHKVA=37.5 %r=0.532544 XHL=2.4 XLT=2.4 XHT=1.6

New Transformer.tr(r:p1rdt2604-p1rdt2604lv) phases=1 windings=3 %loadloss=0.798816 %Noloadloss=0.472 normhkva=27.5 wdg=1 conn=wye bus=p1rdt2604.3 Kv=7.199560000000001 kva=25.0 EmergHKVA=37.5 %r=0.266272 wdg=2 conn=wye bus=p1rdt2604lv.1.0 Kv=0.120089 kva=25.0 EmergHKVA=37.5 %r=0.532544 wdg=3 conn=wye bus=p1rdt2604lv.0.2 Kv=0.120089 kva=25.0 EmergHKVA=37.5 %r=0.532544 XHL=2.4 XLT=2.4 XHT=1.6

New Transformer.tr(r:p1rdt2605-p1rdt2605lv) phases=1 windings=3 %loadloss=0.798816 %Noloadloss=0.472 normhkva=27.5 wdg=1 conn=wye bus=p1rdt2605.1 Kv=7.199560000000001 kva=25.0 EmergHKVA=37.5 %r=0.266272 wdg=2 conn=wye bus=p1rdt2605lv.1.0 Kv=0.120089 kva=25.0 EmergHKVA=37.5 %r=0.532544 wdg=3 conn=wye bus=p1rdt2605lv.0.2 Kv=0.120089 kva=25.0 EmergHKVA=37.5 %r=0.532544 XHL=2.4 XLT=2.4 XHT=1.6

New Transformer.tr(r:p1rdt2606-p1rdt2606lv) phases=1 windings=3 %loadloss=0.798816 %Noloadloss=0.472 normhkva=27.5 wdg=1 conn=wye bus=p1rdt2606.1 Kv=7.199560000000001 kva=25.0 EmergHKVA=37.5 %r=0.266272 wdg=2 conn=wye bus=p1rdt2606lv.1.0 Kv=0.120089 kva=25.0 EmergHKVA=37.5 %r=0.532544 wdg=3 conn=wye bus=p1rdt2606lv.0.2 Kv=0.120089 kva=25.0 EmergHKVA=37.5 %r=0.532544 XHL=2.4 XLT=2.4 XHT=1.6

New Transformer.tr(r:p1rdt2607-p1rdt2607lv) phases=1 windings=3 %loadloss=1.248151 %Noloadloss=0.68 normhkva=11.0 wdg=1 conn=wye bus=p1rdt2607.3 Kv=7.199560000000001 kva=10.0 EmergHKVA=15.0 %r=0.41605 wdg=2 conn=wye bus=p1rdt2607lv.1.0 Kv=0.120089 kva=10.0 EmergHKVA=15.0 %r=0.832101 wdg=3 conn=wye bus=p1rdt2607lv.0.2 Kv=0.120089 kva=10.0 EmergHKVA=15.0 %r=0.832101 XHL=1.08 XLT=1.08 XHT=0.72

New Transformer.tr(r:p1rdt2706-p1rdt2706lv) phases=1 windings=3 %loadloss=0.798816 %Noloadloss=0.472 normhkva=27.5 wdg=1 conn=wye bus=p1rdt2706.3 Kv=7.199560000000001 kva=25.0 EmergHKVA=37.5 %r=0.266272 wdg=2 conn=wye bus=p1rdt2706lv.1.0 Kv=0.120089 kva=25.0 EmergHKVA=37.5 %r=0.532544 wdg=3 conn=wye bus=p1rdt2706lv.0.2 Kv=0.120089 kva=25.0 EmergHKVA=37.5 %r=0.532544 XHL=2.4 XLT=2.4 XHT=1.6

New Transformer.tr(r:p1rdt2707-p1rdt2707lv) phases=1 windings=3 %loadloss=0.798816 %Noloadloss=0.472 normhkva=27.5 wdg=1 conn=wye bus=p1rdt2707.3 Kv=7.199560000000001 kva=25.0 EmergHKVA=37.5 %r=0.266272 wdg=2 conn=wye bus=p1rdt2707lv.1.0 Kv=0.120089 kva=25.0 EmergHKVA=37.5 %r=0.532544 wdg=3 conn=wye bus=p1rdt2707lv.0.2 Kv=0.120089 kva=25.0 EmergHKVA=37.5 %r=0.532544 XHL=2.4 XLT=2.4 XHT=1.6

New Transformer.tr(r:p1rdt2708-p1rdt2708lv) phases=1 windings=3 %loadloss=0.798816 %Noloadloss=0.472 normhkva=27.5 wdg=1 conn=wye bus=p1rdt2708.1 Kv=7.199560000000001 kva=25.0 EmergHKVA=37.5 %r=0.266272 wdg=2 conn=wye bus=p1rdt2708lv.1.0 Kv=0.120089 kva=25.0 EmergHKVA=37.5 %r=0.532544 wdg=3 conn=wye bus=p1rdt2708lv.0.2 Kv=0.120089 kva=25.0 EmergHKVA=37.5 %r=0.532544 XHL=2.4 XLT=2.4 XHT=1.6

New Transformer.tr(r:p1rdt2711-p1rdt2711lv) phases=1 windings=3 %loadloss=0.798816 %Noloadloss=0.472 normhkva=27.5 wdg=1 conn=wye bus=p1rdt2711.2 Kv=7.199560000000001 kva=25.0 EmergHKVA=37.5 %r=0.266272 wdg=2 conn=wye bus=p1rdt2711lv.1.0 Kv=0.120089 kva=25.0 EmergHKVA=37.5 %r=0.532544 wdg=3 conn=wye bus=p1rdt2711lv.0.2 Kv=0.120089 kva=25.0 EmergHKVA=37.5 %r=0.532544 XHL=2.4 XLT=2.4 XHT=1.6

New Transformer.tr(r:p1rdt2800-p1rdt2800lv) phases=1 windings=3 %loadloss=0.798816 %Noloadloss=0.472 normhkva=27.5 wdg=1 conn=wye bus=p1rdt2800.1 Kv=7.199560000000001 kva=25.0 EmergHKVA=37.5 %r=0.266272 wdg=2 conn=wye bus=p1rdt2800lv.1.0 Kv=0.120089 kva=25.0 EmergHKVA=37.5 %r=0.532544 wdg=3 conn=wye bus=p1rdt2800lv.0.2 Kv=0.120089 kva=25.0 EmergHKVA=37.5 %r=0.532544 XHL=2.4 XLT=2.4 XHT=1.6

New Transformer.tr(r:p1rdt2900-p1rdt2900lv) phases=1 windings=3 %loadloss=0.798816 %Noloadloss=0.472 normhkva=27.5 wdg=1 conn=wye bus=p1rdt2900.3 Kv=7.199560000000001 kva=25.0 EmergHKVA=37.5 %r=0.266272 wdg=2 conn=wye bus=p1rdt2900lv.1.0 Kv=0.120089 kva=25.0 EmergHKVA=37.5 %r=0.532544 wdg=3 conn=wye bus=p1rdt2900lv.0.2 Kv=0.120089 kva=25.0 EmergHKVA=37.5 %r=0.532544 XHL=2.4 XLT=2.4 XHT=1.6

New Transformer.tr(r:p1rdt2901-p1rdt2901lv) phases=1 windings=3 %loadloss=0.798816 %Noloadloss=0.472 normhkva=27.5 wdg=1 conn=wye bus=p1rdt2901.1 Kv=7.199560000000001 kva=25.0 EmergHKVA=37.5 %r=0.266272 wdg=2 conn=wye bus=p1rdt2901lv.1.0 Kv=0.120089 kva=25.0 EmergHKVA=37.5 %r=0.532544 wdg=3 conn=wye bus=p1rdt2901lv.0.2 Kv=0.120089 kva=25.0 EmergHKVA=37.5 %r=0.532544 XHL=2.4 XLT=2.4 XHT=1.6

New Transformer.tr(r:p1rdt2902-p1rdt2902lv) phases=1 windings=3 %loadloss=0.599112 %Noloadloss=0.37 normhkva=55.0 wdg=1 conn=wye bus=p1rdt2902.1 Kv=7.199560000000001 kva=50.0 EmergHKVA=75.0 %r=0.199704 wdg=2 conn=wye bus=p1rdt2902lv.1.0 Kv=0.120089 kva=50.0 EmergHKVA=75.0 %r=0.399408 wdg=3 conn=wye bus=p1rdt2902lv.0.2 Kv=0.120089 kva=50.0 EmergHKVA=75.0 %r=0.399408 XHL=2.4 XLT=2.4 XHT=1.6

New Transformer.tr(r:p1rdt3013-p1rdt3013lv) phases=1 windings=3 %loadloss=0.798816 %Noloadloss=0.472 normhkva=27.5 wdg=1 conn=wye bus=p1rdt3013.2 Kv=7.199560000000001 kva=25.0 EmergHKVA=37.5 %r=0.266272 wdg=2 conn=wye bus=p1rdt3013lv.1.0 Kv=0.120089 kva=25.0 EmergHKVA=37.5 %r=0.532544 wdg=3 conn=wye bus=p1rdt3013lv.0.2 Kv=0.120089 kva=25.0 EmergHKVA=37.5 %r=0.532544 XHL=2.4 XLT=2.4 XHT=1.6

New Transformer.tr(r:p1rdt3014-p1rdt3014lv) phases=1 windings=3 %loadloss=0.798816 %Noloadloss=0.472 normhkva=27.5 wdg=1 conn=wye bus=p1rdt3014.2 Kv=7.199560000000001 kva=25.0 EmergHKVA=37.5 %r=0.266272 wdg=2 conn=wye bus=p1rdt3014lv.1.0 Kv=0.120089 kva=25.0 EmergHKVA=37.5 %r=0.532544 wdg=3 conn=wye bus=p1rdt3014lv.0.2 Kv=0.120089 kva=25.0 EmergHKVA=37.5 %r=0.532544 XHL=2.4 XLT=2.4 XHT=1.6

New Transformer.tr(r:p1rdt3117-p1rdt3117lv) phases=1 windings=3 %loadloss=0.798816 %Noloadloss=0.472 normhkva=27.5 wdg=1 conn=wye bus=p1rdt3117.1 Kv=7.199560000000001 kva=25.0 EmergHKVA=37.5 %r=0.266272 wdg=2 conn=wye bus=p1rdt3117lv.1.0 Kv=0.120089 kva=25.0 EmergHKVA=37.5 %r=0.532544 wdg=3 conn=wye bus=p1rdt3117lv.0.2 Kv=0.120089 kva=25.0 EmergHKVA=37.5 %r=0.532544 XHL=2.4 XLT=2.4 XHT=1.6

New Transformer.tr(r:p1rdt3119-p1rdt3119lv) phases=1 windings=3 %loadloss=0.798816 %Noloadloss=0.472 normhkva=27.5 wdg=1 conn=wye bus=p1rdt3119.3 Kv=7.199560000000001 kva=25.0 EmergHKVA=37.5 %r=0.266272 wdg=2 conn=wye bus=p1rdt3119lv.1.0 Kv=0.120089 kva=25.0 EmergHKVA=37.5 %r=0.532544 wdg=3 conn=wye bus=p1rdt3119lv.0.2 Kv=0.120089 kva=25.0 EmergHKVA=37.5 %r=0.532544 XHL=2.4 XLT=2.4 XHT=1.6

New Transformer.tr(r:p1rdt3219-p1rdt3219lv) phases=1 windings=3 %loadloss=0.798816 %Noloadloss=0.472 normhkva=27.5 wdg=1 conn=wye bus=p1rdt3219.2 Kv=7.199560000000001 kva=25.0 EmergHKVA=37.5 %r=0.266272 wdg=2 conn=wye bus=p1rdt3219lv.1.0 Kv=0.120089 kva=25.0 EmergHKVA=37.5 %r=0.532544 wdg=3 conn=wye bus=p1rdt3219lv.0.2 Kv=0.120089 kva=25.0 EmergHKVA=37.5 %r=0.532544 XHL=2.4 XLT=2.4 XHT=1.6

New Transformer.tr(r:p1rdt3308-p1rdt3308lv) phases=1 windings=3 %loadloss=0.798816 %Noloadloss=0.472 normhkva=27.5 wdg=1 conn=wye bus=p1rdt3308.1 Kv=7.199560000000001 kva=25.0 EmergHKVA=37.5 %r=0.266272 wdg=2 conn=wye bus=p1rdt3308lv.1.0 Kv=0.120089 kva=25.0 EmergHKVA=37.5 %r=0.532544 wdg=3 conn=wye bus=p1rdt3308lv.0.2 Kv=0.120089 kva=25.0 EmergHKVA=37.5 %r=0.532544 XHL=2.4 XLT=2.4 XHT=1.6

New Transformer.tr(r:p1rdt3309-p1rdt3309lv) phases=1 windings=3 %loadloss=1.248151 %Noloadloss=0.68 normhkva=11.0 wdg=1 conn=wye bus=p1rdt3309.2 Kv=7.199560000000001 kva=10.0 EmergHKVA=15.0 %r=0.41605 wdg=2 conn=wye bus=p1rdt3309lv.1.0 Kv=0.120089 kva=10.0 EmergHKVA=15.0 %r=0.832101 wdg=3 conn=wye bus=p1rdt3309lv.0.2 Kv=0.120089 kva=10.0 EmergHKVA=15.0 %r=0.832101 XHL=1.08 XLT=1.08 XHT=0.72

New Transformer.tr(r:p1rdt3310-p1rdt3310lv) phases=1 windings=3 %loadloss=1.248151 %Noloadloss=0.68 normhkva=11.0 wdg=1 conn=wye bus=p1rdt3310.2 Kv=7.199560000000001 kva=10.0 EmergHKVA=15.0 %r=0.41605 wdg=2 conn=wye bus=p1rdt3310lv.1.0 Kv=0.120089 kva=10.0 EmergHKVA=15.0 %r=0.832101 wdg=3 conn=wye bus=p1rdt3310lv.0.2 Kv=0.120089 kva=10.0 EmergHKVA=15.0 %r=0.832101 XHL=1.08 XLT=1.08 XHT=0.72

New Transformer.tr(r:p1rdt3492-p1rdt3492lv) phases=1 windings=3 %loadloss=0.798816 %Noloadloss=0.472 normhkva=27.5 wdg=1 conn=wye bus=p1rdt3492.2 Kv=7.199560000000001 kva=25.0 EmergHKVA=37.5 %r=0.266272 wdg=2 conn=wye bus=p1rdt3492lv.1.0 Kv=0.120089 kva=25.0 EmergHKVA=37.5 %r=0.532544 wdg=3 conn=wye bus=p1rdt3492lv.0.2 Kv=0.120089 kva=25.0 EmergHKVA=37.5 %r=0.532544 XHL=2.4 XLT=2.4 XHT=1.6

New Transformer.tr(r:p1rdt3589-p1rdt3589lv) phases=1 windings=3 %loadloss=0.798816 %Noloadloss=0.472 normhkva=27.5 wdg=1 conn=wye bus=p1rdt3589.2 Kv=7.199560000000001 kva=25.0 EmergHKVA=37.5 %r=0.266272 wdg=2 conn=wye bus=p1rdt3589lv.1.0 Kv=0.120089 kva=25.0 EmergHKVA=37.5 %r=0.532544 wdg=3 conn=wye bus=p1rdt3589lv.0.2 Kv=0.120089 kva=25.0 EmergHKVA=37.5 %r=0.532544 XHL=2.4 XLT=2.4 XHT=1.6

New Transformer.tr(r:p1rdt3698-p1rdt3698lv) phases=1 windings=3 %loadloss=1.248151 %Noloadloss=0.68 normhkva=11.0 wdg=1 conn=wye bus=p1rdt3698.2 Kv=7.199560000000001 kva=10.0 EmergHKVA=15.0 %r=0.41605 wdg=2 conn=wye bus=p1rdt3698lv.1.0 Kv=0.120089 kva=10.0 EmergHKVA=15.0 %r=0.832101 wdg=3 conn=wye bus=p1rdt3698lv.0.2 Kv=0.120089 kva=10.0 EmergHKVA=15.0 %r=0.832101 XHL=1.08 XLT=1.08 XHT=0.72

New Transformer.tr(r:p1rdt3699-p1rdt3699lv) phases=1 windings=3 %loadloss=1.248151 %Noloadloss=0.68 normhkva=11.0 wdg=1 conn=wye bus=p1rdt3699.3 Kv=7.199560000000001 kva=10.0 EmergHKVA=15.0 %r=0.41605 wdg=2 conn=wye bus=p1rdt3699lv.1.0 Kv=0.120089 kva=10.0 EmergHKVA=15.0 %r=0.832101 wdg=3 conn=wye bus=p1rdt3699lv.0.2 Kv=0.120089 kva=10.0 EmergHKVA=15.0 %r=0.832101 XHL=1.08 XLT=1.08 XHT=0.72

New Transformer.tr(r:p1rdt3792-p1rdt3792lv) phases=1 windings=3 %loadloss=0.798816 %Noloadloss=0.472 normhkva=27.5 wdg=1 conn=wye bus=p1rdt3792.2 Kv=7.199560000000001 kva=25.0 EmergHKVA=37.5 %r=0.266272 wdg=2 conn=wye bus=p1rdt3792lv.1.0 Kv=0.120089 kva=25.0 EmergHKVA=37.5 %r=0.532544 wdg=3 conn=wye bus=p1rdt3792lv.0.2 Kv=0.120089 kva=25.0 EmergHKVA=37.5 %r=0.532544 XHL=2.4 XLT=2.4 XHT=1.6

New Transformer.tr(r:p1rdt3887-p1rdt3887lv) phases=1 windings=3 %loadloss=0.798816 %Noloadloss=0.472 normhkva=27.5 wdg=1 conn=wye bus=p1rdt3887.3 Kv=7.199560000000001 kva=25.0 EmergHKVA=37.5 %r=0.266272 wdg=2 conn=wye bus=p1rdt3887lv.1.0 Kv=0.120089 kva=25.0 EmergHKVA=37.5 %r=0.532544 wdg=3 conn=wye bus=p1rdt3887lv.0.2 Kv=0.120089 kva=25.0 EmergHKVA=37.5 %r=0.532544 XHL=2.4 XLT=2.4 XHT=1.6

New Transformer.tr(r:p1rdt3983-p1rdt3983lv) phases=1 windings=3 %loadloss=0.798816 %Noloadloss=0.472 normhkva=27.5 wdg=1 conn=wye bus=p1rdt3983.2 Kv=7.199560000000001 kva=25.0 EmergHKVA=37.5 %r=0.266272 wdg=2 conn=wye bus=p1rdt3983lv.1.0 Kv=0.120089 kva=25.0 EmergHKVA=37.5 %r=0.532544 wdg=3 conn=wye bus=p1rdt3983lv.0.2 Kv=0.120089 kva=25.0 EmergHKVA=37.5 %r=0.532544 XHL=2.4 XLT=2.4 XHT=1.6

New Transformer.tr(r:p1rdt3985-p1rdt3985lv) phases=1 windings=3 %loadloss=0.798816 %Noloadloss=0.37 normhkva=55.0 wdg=1 conn=wye bus=p1rdt3985.2 Kv=7.199560000000001 kva=50.0 EmergHKVA=75.0 %r=0.266272 wdg=2 conn=wye bus=p1rdt3985lv.1.0 Kv=0.120089 kva=50.0 EmergHKVA=75.0 %r=0.532544 wdg=3 conn=wye bus=p1rdt3985lv.0.2 Kv=0.120089 kva=50.0 EmergHKVA=75.0 %r=0.532544 XHL=2.4 XLT=2.4 XHT=1.6

New Transformer.tr(r:p1rdt4068-p1rdt4068lv) phases=1 windings=3 %loadloss=0.599112 %Noloadloss=0.37 normhkva=55.0 wdg=1 conn=wye bus=p1rdt4068.1 Kv=7.199560000000001 kva=50.0 EmergHKVA=75.0 %r=0.199704 wdg=2 conn=wye bus=p1rdt4068lv.1.0 Kv=0.120089 kva=50.0 EmergHKVA=75.0 %r=0.399408 wdg=3 conn=wye bus=p1rdt4068lv.0.2 Kv=0.120089 kva=50.0 EmergHKVA=75.0 %r=0.399408 XHL=2.4 XLT=2.4 XHT=1.6

New Transformer.tr(r:p1rdt4069-p1rdt4069lv) phases=1 windings=3 %loadloss=0.798816 %Noloadloss=0.472 normhkva=27.5 wdg=1 conn=wye bus=p1rdt4069.2 Kv=7.199560000000001 kva=25.0 EmergHKVA=37.5 %r=0.266272 wdg=2 conn=wye bus=p1rdt4069lv.1.0 Kv=0.120089 kva=25.0 EmergHKVA=37.5 %r=0.532544 wdg=3 conn=wye bus=p1rdt4069lv.0.2 Kv=0.120089 kva=25.0 EmergHKVA=37.5 %r=0.532544 XHL=2.4 XLT=2.4 XHT=1.6

New Transformer.tr(r:p1rdt4070-p1rdt4070lv) phases=1 windings=3 %loadloss=0.798816 %Noloadloss=0.472 normhkva=27.5 wdg=1 conn=wye bus=p1rdt4070.3 Kv=7.199560000000001 kva=25.0 EmergHKVA=37.5 %r=0.266272 wdg=2 conn=wye bus=p1rdt4070lv.1.0 Kv=0.120089 kva=25.0 EmergHKVA=37.5 %r=0.532544 wdg=3 conn=wye bus=p1rdt4070lv.0.2 Kv=0.120089 kva=25.0 EmergHKVA=37.5 %r=0.532544 XHL=2.4 XLT=2.4 XHT=1.6

New Transformer.tr(r:p1rdt4150-p1rdt4150lv) phases=1 windings=3 %loadloss=1.248151 %Noloadloss=0.68 normhkva=11.0 wdg=1 conn=wye bus=p1rdt4150.3 Kv=7.199560000000001 kva=10.0 EmergHKVA=15.0 %r=0.41605 wdg=2 conn=wye bus=p1rdt4150lv.1.0 Kv=0.120089 kva=10.0 EmergHKVA=15.0 %r=0.832101 wdg=3 conn=wye bus=p1rdt4150lv.0.2 Kv=0.120089 kva=10.0 EmergHKVA=15.0 %r=0.832101 XHL=1.08 XLT=1.08 XHT=0.72

New Transformer.tr(r:p1rdt4151-p1rdt4151lv) phases=1 windings=3 %loadloss=0.798816 %Noloadloss=0.472 normhkva=27.5 wdg=1 conn=wye bus=p1rdt4151.3 Kv=7.199560000000001 kva=25.0 EmergHKVA=37.5 %r=0.266272 wdg=2 conn=wye bus=p1rdt4151lv.1.0 Kv=0.120089 kva=25.0 EmergHKVA=37.5 %r=0.532544 wdg=3 conn=wye bus=p1rdt4151lv.0.2 Kv=0.120089 kva=25.0 EmergHKVA=37.5 %r=0.532544 XHL=2.4 XLT=2.4 XHT=1.6

New Transformer.tr(r:p1rdt4152-p1rdt4152lv) phases=1 windings=3 %loadloss=0.798816 %Noloadloss=0.472 normhkva=27.5 wdg=1 conn=wye bus=p1rdt4152.3 Kv=7.199560000000001 kva=25.0 EmergHKVA=37.5 %r=0.266272 wdg=2 conn=wye bus=p1rdt4152lv.1.0 Kv=0.120089 kva=25.0 EmergHKVA=37.5 %r=0.532544 wdg=3 conn=wye bus=p1rdt4152lv.0.2 Kv=0.120089 kva=25.0 EmergHKVA=37.5 %r=0.532544 XHL=2.4 XLT=2.4 XHT=1.6

New Transformer.tr(r:p1rdt4153-p1rdt4153lv) phases=1 windings=3 %loadloss=0.798816 %Noloadloss=0.37 normhkva=55.0 wdg=1 conn=wye bus=p1rdt4153.2 Kv=7.199560000000001 kva=50.0 EmergHKVA=75.0 %r=0.266272 wdg=2 conn=wye bus=p1rdt4153lv.1.0 Kv=0.120089 kva=50.0 EmergHKVA=75.0 %r=0.532544 wdg=3 conn=wye bus=p1rdt4153lv.0.2 Kv=0.120089 kva=50.0 EmergHKVA=75.0 %r=0.532544 XHL=2.4 XLT=2.4 XHT=1.6

New Transformer.tr(r:p1rdt4224-p1rdt4224lv) phases=1 windings=3 %loadloss=0.798816 %Noloadloss=0.472 normhkva=27.5 wdg=1 conn=wye bus=p1rdt4224.2 Kv=7.199560000000001 kva=25.0 EmergHKVA=37.5 %r=0.266272 wdg=2 conn=wye bus=p1rdt4224lv.1.0 Kv=0.120089 kva=25.0 EmergHKVA=37.5 %r=0.532544 wdg=3 conn=wye bus=p1rdt4224lv.0.2 Kv=0.120089 kva=25.0 EmergHKVA=37.5 %r=0.532544 XHL=2.4 XLT=2.4 XHT=1.6

New Transformer.tr(r:p1rdt4309-p1rdt4309lv) phases=1 windings=3 %loadloss=0.798816 %Noloadloss=0.37 normhkva=55.0 wdg=1 conn=wye bus=p1rdt4309.1 Kv=7.199560000000001 kva=50.0 EmergHKVA=75.0 %r=0.266272 wdg=2 conn=wye bus=p1rdt4309lv.1.0 Kv=0.120089 kva=50.0 EmergHKVA=75.0 %r=0.532544 wdg=3 conn=wye bus=p1rdt4309lv.0.2 Kv=0.120089 kva=50.0 EmergHKVA=75.0 %r=0.532544 XHL=2.4 XLT=2.4 XHT=1.6

New Transformer.tr(r:p1rdt4310-p1rdt4310lv) phases=1 windings=3 %loadloss=0.798816 %Noloadloss=0.472 normhkva=27.5 wdg=1 conn=wye bus=p1rdt4310.1 Kv=7.199560000000001 kva=25.0 EmergHKVA=37.5 %r=0.266272 wdg=2 conn=wye bus=p1rdt4310lv.1.0 Kv=0.120089 kva=25.0 EmergHKVA=37.5 %r=0.532544 wdg=3 conn=wye bus=p1rdt4310lv.0.2 Kv=0.120089 kva=25.0 EmergHKVA=37.5 %r=0.532544 XHL=2.4 XLT=2.4 XHT=1.6

New Transformer.tr(r:p1rdt4311-p1rdt4311lv) phases=1 windings=3 %loadloss=0.798816 %Noloadloss=0.472 normhkva=27.5 wdg=1 conn=wye bus=p1rdt4311.3 Kv=7.199560000000001 kva=25.0 EmergHKVA=37.5 %r=0.266272 wdg=2 conn=wye bus=p1rdt4311lv.1.0 Kv=0.120089 kva=25.0 EmergHKVA=37.5 %r=0.532544 wdg=3 conn=wye bus=p1rdt4311lv.0.2 Kv=0.120089 kva=25.0 EmergHKVA=37.5 %r=0.532544 XHL=2.4 XLT=2.4 XHT=1.6

New Transformer.tr(r:p1rdt4382-p1rdt4382lv) phases=1 windings=3 %loadloss=0.798816 %Noloadloss=0.472 normhkva=27.5 wdg=1 conn=wye bus=p1rdt4382.3 Kv=7.199560000000001 kva=25.0 EmergHKVA=37.5 %r=0.266272 wdg=2 conn=wye bus=p1rdt4382lv.1.0 Kv=0.120089 kva=25.0 EmergHKVA=37.5 %r=0.532544 wdg=3 conn=wye bus=p1rdt4382lv.0.2 Kv=0.120089 kva=25.0 EmergHKVA=37.5 %r=0.532544 XHL=2.4 XLT=2.4 XHT=1.6

New Transformer.tr(r:p1rdt4386-p1rdt4386lv) phases=1 windings=3 %loadloss=0.798816 %Noloadloss=0.472 normhkva=27.5 wdg=1 conn=wye bus=p1rdt4386.1 Kv=7.199560000000001 kva=25.0 EmergHKVA=37.5 %r=0.266272 wdg=2 conn=wye bus=p1rdt4386lv.1.0 Kv=0.120089 kva=25.0 EmergHKVA=37.5 %r=0.532544 wdg=3 conn=wye bus=p1rdt4386lv.0.2 Kv=0.120089 kva=25.0 EmergHKVA=37.5 %r=0.532544 XHL=2.4 XLT=2.4 XHT=1.6

New Transformer.tr(r:p1rdt4548-p1rdt4548lv) phases=1 windings=3 %loadloss=0.798816 %Noloadloss=0.472 normhkva=27.5 wdg=1 conn=wye bus=p1rdt4548.3 Kv=7.199560000000001 kva=25.0 EmergHKVA=37.5 %r=0.266272 wdg=2 conn=wye bus=p1rdt4548lv.1.0 Kv=0.120089 kva=25.0 EmergHKVA=37.5 %r=0.532544 wdg=3 conn=wye bus=p1rdt4548lv.0.2 Kv=0.120089 kva=25.0 EmergHKVA=37.5 %r=0.532544 XHL=2.4 XLT=2.4 XHT=1.6

New Transformer.tr(r:p1rdt4549-p1rdt4549lv) phases=1 windings=3 %loadloss=0.798816 %Noloadloss=0.472 normhkva=27.5 wdg=1 conn=wye bus=p1rdt4549.2 Kv=7.199560000000001 kva=25.0 EmergHKVA=37.5 %r=0.266272 wdg=2 conn=wye bus=p1rdt4549lv.1.0 Kv=0.120089 kva=25.0 EmergHKVA=37.5 %r=0.532544 wdg=3 conn=wye bus=p1rdt4549lv.0.2 Kv=0.120089 kva=25.0 EmergHKVA=37.5 %r=0.532544 XHL=2.4 XLT=2.4 XHT=1.6

New Transformer.tr(r:p1rdt4550-p1rdt4550lv) phases=1 windings=3 %loadloss=0.798816 %Noloadloss=0.472 normhkva=27.5 wdg=1 conn=wye bus=p1rdt4550.2 Kv=7.199560000000001 kva=25.0 EmergHKVA=37.5 %r=0.266272 wdg=2 conn=wye bus=p1rdt4550lv.1.0 Kv=0.120089 kva=25.0 EmergHKVA=37.5 %r=0.532544 wdg=3 conn=wye bus=p1rdt4550lv.0.2 Kv=0.120089 kva=25.0 EmergHKVA=37.5 %r=0.532544 XHL=2.4 XLT=2.4 XHT=1.6

New Transformer.tr(r:p1rdt4628-p1rdt4628lv) phases=1 windings=3 %loadloss=1.248151 %Noloadloss=0.68 normhkva=11.0 wdg=1 conn=wye bus=p1rdt4628.3 Kv=7.199560000000001 kva=10.0 EmergHKVA=15.0 %r=0.41605 wdg=2 conn=wye bus=p1rdt4628lv.1.0 Kv=0.120089 kva=10.0 EmergHKVA=15.0 %r=0.832101 wdg=3 conn=wye bus=p1rdt4628lv.0.2 Kv=0.120089 kva=10.0 EmergHKVA=15.0 %r=0.832101 XHL=1.08 XLT=1.08 XHT=0.72

New Transformer.tr(r:p1rdt4785-p1rdt4785lv) phases=1 windings=3 %loadloss=0.798816 %Noloadloss=0.472 normhkva=27.5 wdg=1 conn=wye bus=p1rdt4785.1 Kv=7.199560000000001 kva=25.0 EmergHKVA=37.5 %r=0.266272 wdg=2 conn=wye bus=p1rdt4785lv.1.0 Kv=0.120089 kva=25.0 EmergHKVA=37.5 %r=0.532544 wdg=3 conn=wye bus=p1rdt4785lv.0.2 Kv=0.120089 kva=25.0 EmergHKVA=37.5 %r=0.532544 XHL=2.4 XLT=2.4 XHT=1.6

New Transformer.tr(r:p1rdt4859-p1rdt4859lv) phases=1 windings=3 %loadloss=0.798816 %Noloadloss=0.472 normhkva=27.5 wdg=1 conn=wye bus=p1rdt4859.3 Kv=7.199560000000001 kva=25.0 EmergHKVA=37.5 %r=0.266272 wdg=2 conn=wye bus=p1rdt4859lv.1.0 Kv=0.120089 kva=25.0 EmergHKVA=37.5 %r=0.532544 wdg=3 conn=wye bus=p1rdt4859lv.0.2 Kv=0.120089 kva=25.0 EmergHKVA=37.5 %r=0.532544 XHL=2.4 XLT=2.4 XHT=1.6

New Transformer.tr(r:p1rdt4860-p1rdt4860lv) phases=1 windings=3 %loadloss=0.798816 %Noloadloss=0.472 normhkva=27.5 wdg=1 conn=wye bus=p1rdt4860.3 Kv=7.199560000000001 kva=25.0 EmergHKVA=37.5 %r=0.266272 wdg=2 conn=wye bus=p1rdt4860lv.1.0 Kv=0.120089 kva=25.0 EmergHKVA=37.5 %r=0.532544 wdg=3 conn=wye bus=p1rdt4860lv.0.2 Kv=0.120089 kva=25.0 EmergHKVA=37.5 %r=0.532544 XHL=2.4 XLT=2.4 XHT=1.6

New Transformer.tr(r:p1rdt4934-p1rdt4934lv) phases=1 windings=3 %loadloss=1.248151 %Noloadloss=0.68 normhkva=11.0 wdg=1 conn=wye bus=p1rdt4934.3 Kv=7.199560000000001 kva=10.0 EmergHKVA=15.0 %r=0.41605 wdg=2 conn=wye bus=p1rdt4934lv.1.0 Kv=0.120089 kva=10.0 EmergHKVA=15.0 %r=0.832101 wdg=3 conn=wye bus=p1rdt4934lv.0.2 Kv=0.120089 kva=10.0 EmergHKVA=15.0 %r=0.832101 XHL=1.08 XLT=1.08 XHT=0.72

New Transformer.tr(r:p1rdt5001-p1rdt5001lv) phases=1 windings=3 %loadloss=0.798816 %Noloadloss=0.472 normhkva=27.5 wdg=1 conn=wye bus=p1rdt5001.2 Kv=7.199560000000001 kva=25.0 EmergHKVA=37.5 %r=0.266272 wdg=2 conn=wye bus=p1rdt5001lv.1.0 Kv=0.120089 kva=25.0 EmergHKVA=37.5 %r=0.532544 wdg=3 conn=wye bus=p1rdt5001lv.0.2 Kv=0.120089 kva=25.0 EmergHKVA=37.5 %r=0.532544 XHL=2.4 XLT=2.4 XHT=1.6

New Transformer.tr(r:p1rdt5002-p1rdt5002lv) phases=1 windings=3 %loadloss=0.599112 %Noloadloss=0.37 normhkva=55.0 wdg=1 conn=wye bus=p1rdt5002.2 Kv=7.199560000000001 kva=50.0 EmergHKVA=75.0 %r=0.199704 wdg=2 conn=wye bus=p1rdt5002lv.1.0 Kv=0.120089 kva=50.0 EmergHKVA=75.0 %r=0.399408 wdg=3 conn=wye bus=p1rdt5002lv.0.2 Kv=0.120089 kva=50.0 EmergHKVA=75.0 %r=0.399408 XHL=2.4 XLT=2.4 XHT=1.6

New Transformer.tr(r:p1rdt5003-p1rdt5003lv) phases=1 windings=3 %loadloss=1.248151 %Noloadloss=0.68 normhkva=11.0 wdg=1 conn=wye bus=p1rdt5003.2 Kv=7.199560000000001 kva=10.0 EmergHKVA=15.0 %r=0.41605 wdg=2 conn=wye bus=p1rdt5003lv.1.0 Kv=0.120089 kva=10.0 EmergHKVA=15.0 %r=0.832101 wdg=3 conn=wye bus=p1rdt5003lv.0.2 Kv=0.120089 kva=10.0 EmergHKVA=15.0 %r=0.832101 XHL=1.08 XLT=1.08 XHT=0.72

New Transformer.tr(r:p1rdt5098-p1rdt5098lv) phases=1 windings=3 %loadloss=0.798816 %Noloadloss=0.472 normhkva=27.5 wdg=1 conn=wye bus=p1rdt5098.3 Kv=7.199560000000001 kva=25.0 EmergHKVA=37.5 %r=0.266272 wdg=2 conn=wye bus=p1rdt5098lv.1.0 Kv=0.120089 kva=25.0 EmergHKVA=37.5 %r=0.532544 wdg=3 conn=wye bus=p1rdt5098lv.0.2 Kv=0.120089 kva=25.0 EmergHKVA=37.5 %r=0.532544 XHL=2.4 XLT=2.4 XHT=1.6

New Transformer.tr(r:p1rdt5182-p1rdt5182lv) phases=1 windings=3 %loadloss=0.798816 %Noloadloss=0.472 normhkva=27.5 wdg=1 conn=wye bus=p1rdt5182.2 Kv=7.199560000000001 kva=25.0 EmergHKVA=37.5 %r=0.266272 wdg=2 conn=wye bus=p1rdt5182lv.1.0 Kv=0.120089 kva=25.0 EmergHKVA=37.5 %r=0.532544 wdg=3 conn=wye bus=p1rdt5182lv.0.2 Kv=0.120089 kva=25.0 EmergHKVA=37.5 %r=0.532544 XHL=2.4 XLT=2.4 XHT=1.6

New Transformer.tr(r:p1rdt5254-p1rdt5254lv) phases=1 windings=3 %loadloss=1.248151 %Noloadloss=0.68 normhkva=11.0 wdg=1 conn=wye bus=p1rdt5254.2 Kv=7.199560000000001 kva=10.0 EmergHKVA=15.0 %r=0.41605 wdg=2 conn=wye bus=p1rdt5254lv.1.0 Kv=0.120089 kva=10.0 EmergHKVA=15.0 %r=0.832101 wdg=3 conn=wye bus=p1rdt5254lv.0.2 Kv=0.120089 kva=10.0 EmergHKVA=15.0 %r=0.832101 XHL=1.08 XLT=1.08 XHT=0.72

New Transformer.tr(r:p1rdt5334-p1rdt5334lv) phases=1 windings=3 %loadloss=0.798816 %Noloadloss=0.472 normhkva=27.5 wdg=1 conn=wye bus=p1rdt5334.2 Kv=7.199560000000001 kva=25.0 EmergHKVA=37.5 %r=0.266272 wdg=2 conn=wye bus=p1rdt5334lv.1.0 Kv=0.120089 kva=25.0 EmergHKVA=37.5 %r=0.532544 wdg=3 conn=wye bus=p1rdt5334lv.0.2 Kv=0.120089 kva=25.0 EmergHKVA=37.5 %r=0.532544 XHL=2.4 XLT=2.4 XHT=1.6

New Transformer.tr(r:p1rdt5335-p1rdt5335lv) phases=1 windings=3 %loadloss=0.798816 %Noloadloss=0.37 normhkva=55.0 wdg=1 conn=wye bus=p1rdt5335.2 Kv=7.199560000000001 kva=50.0 EmergHKVA=75.0 %r=0.266272 wdg=2 conn=wye bus=p1rdt5335lv.1.0 Kv=0.120089 kva=50.0 EmergHKVA=75.0 %r=0.532544 wdg=3 conn=wye bus=p1rdt5335lv.0.2 Kv=0.120089 kva=50.0 EmergHKVA=75.0 %r=0.532544 XHL=2.4 XLT=2.4 XHT=1.6

New Transformer.tr(r:p1rdt5336-p1rdt5336lv) phases=1 windings=3 %loadloss=1.248151 %Noloadloss=0.68 normhkva=11.0 wdg=1 conn=wye bus=p1rdt5336.2 Kv=7.199560000000001 kva=10.0 EmergHKVA=15.0 %r=0.41605 wdg=2 conn=wye bus=p1rdt5336lv.1.0 Kv=0.120089 kva=10.0 EmergHKVA=15.0 %r=0.832101 wdg=3 conn=wye bus=p1rdt5336lv.0.2 Kv=0.120089 kva=10.0 EmergHKVA=15.0 %r=0.832101 XHL=1.08 XLT=1.08 XHT=0.72

New Transformer.tr(r:p1rdt5414-p1rdt5414lv) phases=1 windings=3 %loadloss=0.798816 %Noloadloss=0.472 normhkva=27.5 wdg=1 conn=wye bus=p1rdt5414.3 Kv=7.199560000000001 kva=25.0 EmergHKVA=37.5 %r=0.266272 wdg=2 conn=wye bus=p1rdt5414lv.1.0 Kv=0.120089 kva=25.0 EmergHKVA=37.5 %r=0.532544 wdg=3 conn=wye bus=p1rdt5414lv.0.2 Kv=0.120089 kva=25.0 EmergHKVA=37.5 %r=0.532544 XHL=2.4 XLT=2.4 XHT=1.6

...