electric-grid/physical/synthetic/synAustinTD/models/syn-austin-D_only-v03/P1R/base/opendss/p1rhs4_1247/p1rhs4_1247--p1rdt2300/Transformers.dss
New Transformer.tr(r:p1rdt129-p1rdt129lv) phases=1 windings=3 %loadloss=0.798816 %Noloadloss=0.472 normhkva=27.5 wdg=1 conn=wye bus=p1rdt129.3 Kv=7.199560000000001 kva=25.0 EmergHKVA=37.5 %r=0.266272 wdg=2 conn=wye bus=p1rdt129lv.1.0 Kv=0.120089 kva=25.0 EmergHKVA=37.5 %r=0.532544 wdg=3 conn=wye bus=p1rdt129lv.0.2 Kv=0.120089 kva=25.0 EmergHKVA=37.5 %r=0.532544 XHL=2.4 XLT=2.4 XHT=1.6

New Transformer.tr(r:p1rdt130-p1rdt130lv) phases=1 windings=3 %loadloss=0.798816 %Noloadloss=0.472 normhkva=27.5 wdg=1 conn=wye bus=p1rdt130.2 Kv=7.199560000000001 kva=25.0 EmergHKVA=37.5 %r=0.266272 wdg=2 conn=wye bus=p1rdt130lv.1.0 Kv=0.120089 kva=25.0 EmergHKVA=37.5 %r=0.532544 wdg=3 conn=wye bus=p1rdt130lv.0.2 Kv=0.120089 kva=25.0 EmergHKVA=37.5 %r=0.532544 XHL=2.4 XLT=2.4 XHT=1.6

New Transformer.tr(r:p1rdt131-p1rdt131lv) phases=1 windings=3 %loadloss=0.798816 %Noloadloss=0.472 normhkva=27.5 wdg=1 conn=wye bus=p1rdt131.2 Kv=7.199560000000001 kva=25.0 EmergHKVA=37.5 %r=0.266272 wdg=2 conn=wye bus=p1rdt131lv.1.0 Kv=0.120089 kva=25.0 EmergHKVA=37.5 %r=0.532544 wdg=3 conn=wye bus=p1rdt131lv.0.2 Kv=0.120089 kva=25.0 EmergHKVA=37.5 %r=0.532544 XHL=2.4 XLT=2.4 XHT=1.6

New Transformer.tr(r:p1rdt145-p1rdt145lv) phases=1 windings=3 %loadloss=0.599112 %Noloadloss=0.37 normhkva=55.0 wdg=1 conn=wye bus=p1rdt145.2 Kv=7.199560000000001 kva=50.0 EmergHKVA=75.0 %r=0.199704 wdg=2 conn=wye bus=p1rdt145lv.1.0 Kv=0.120089 kva=50.0 EmergHKVA=75.0 %r=0.399408 wdg=3 conn=wye bus=p1rdt145lv.0.2 Kv=0.120089 kva=50.0 EmergHKVA=75.0 %r=0.399408 XHL=2.4 XLT=2.4 XHT=1.6

New Transformer.tr(r:p1rdt270-p1rdt270lv) phases=1 windings=3 %loadloss=1.248151 %Noloadloss=0.68 normhkva=11.0 wdg=1 conn=wye bus=p1rdt270.2 Kv=7.199560000000001 kva=10.0 EmergHKVA=15.0 %r=0.41605 wdg=2 conn=wye bus=p1rdt270lv.1.0 Kv=0.120089 kva=10.0 EmergHKVA=15.0 %r=0.832101 wdg=3 conn=wye bus=p1rdt270lv.0.2 Kv=0.120089 kva=10.0 EmergHKVA=15.0 %r=0.832101 XHL=1.08 XLT=1.08 XHT=0.72

New Transformer.tr(r:p1rdt271-p1rdt271lv) phases=1 windings=3 %loadloss=0.798816 %Noloadloss=0.472 normhkva=27.5 wdg=1 conn=wye bus=p1rdt271.3 Kv=7.199560000000001 kva=25.0 EmergHKVA=37.5 %r=0.266272 wdg=2 conn=wye bus=p1rdt271lv.1.0 Kv=0.120089 kva=25.0 EmergHKVA=37.5 %r=0.532544 wdg=3 conn=wye bus=p1rdt271lv.0.2 Kv=0.120089 kva=25.0 EmergHKVA=37.5 %r=0.532544 XHL=2.4 XLT=2.4 XHT=1.6

New Transformer.tr(r:p1rdt393-p1rdt393lv) phases=1 windings=3 %loadloss=0.798816 %Noloadloss=0.472 normhkva=27.5 wdg=1 conn=wye bus=p1rdt393.1 Kv=7.199560000000001 kva=25.0 EmergHKVA=37.5 %r=0.266272 wdg=2 conn=wye bus=p1rdt393lv.1.0 Kv=0.120089 kva=25.0 EmergHKVA=37.5 %r=0.532544 wdg=3 conn=wye bus=p1rdt393lv.0.2 Kv=0.120089 kva=25.0 EmergHKVA=37.5 %r=0.532544 XHL=2.4 XLT=2.4 XHT=1.6

New Transformer.tr(r:p1rdt395-p1rdt395lv) phases=1 windings=3 %loadloss=0.798816 %Noloadloss=0.472 normhkva=27.5 wdg=1 conn=wye bus=p1rdt395.3 Kv=7.199560000000001 kva=25.0 EmergHKVA=37.5 %r=0.266272 wdg=2 conn=wye bus=p1rdt395lv.1.0 Kv=0.120089 kva=25.0 EmergHKVA=37.5 %r=0.532544 wdg=3 conn=wye bus=p1rdt395lv.0.2 Kv=0.120089 kva=25.0 EmergHKVA=37.5 %r=0.532544 XHL=2.4 XLT=2.4 XHT=1.6

New Transformer.tr(r:p1rdt396-p1rdt396lv) phases=1 windings=3 %loadloss=0.798816 %Noloadloss=0.37 normhkva=55.0 wdg=1 conn=wye bus=p1rdt396.1 Kv=7.199560000000001 kva=50.0 EmergHKVA=75.0 %r=0.266272 wdg=2 conn=wye bus=p1rdt396lv.1.0 Kv=0.120089 kva=50.0 EmergHKVA=75.0 %r=0.532544 wdg=3 conn=wye bus=p1rdt396lv.0.2 Kv=0.120089 kva=50.0 EmergHKVA=75.0 %r=0.532544 XHL=2.4 XLT=2.4 XHT=1.6

New Transformer.tr(r:p1rdt517-p1rdt517lv) phases=1 windings=3 %loadloss=0.798816 %Noloadloss=0.472 normhkva=27.5 wdg=1 conn=wye bus=p1rdt517.1 Kv=7.199560000000001 kva=25.0 EmergHKVA=37.5 %r=0.266272 wdg=2 conn=wye bus=p1rdt517lv.1.0 Kv=0.120089 kva=25.0 EmergHKVA=37.5 %r=0.532544 wdg=3 conn=wye bus=p1rdt517lv.0.2 Kv=0.120089 kva=25.0 EmergHKVA=37.5 %r=0.532544 XHL=2.4 XLT=2.4 XHT=1.6

New Transformer.tr(r:p1rdt518-p1rdt518lv) phases=3 windings=2 %loadloss=1.74408 %Noloadloss=0.6 normhkva=82.5 wdg=1 conn=wye Kv=12.47 kva=75.0 EmergHKVA=112.5 %R=0.87204 bus=p1rdt518 wdg=2 conn=wye Kv=0.48 kva=75.0 EmergHKVA=112.5 %R=0.87204 bus=p1rdt518lv XHL=3.2400000000000007

New Transformer.tr(r:p1rdt531-p1rdt531lv) phases=1 windings=3 %loadloss=0.599112 %Noloadloss=0.37 normhkva=55.0 wdg=1 conn=wye bus=p1rdt531.1 Kv=7.199560000000001 kva=50.0 EmergHKVA=75.0 %r=0.199704 wdg=2 conn=wye bus=p1rdt531lv.1.0 Kv=0.120089 kva=50.0 EmergHKVA=75.0 %r=0.399408 wdg=3 conn=wye bus=p1rdt531lv.0.2 Kv=0.120089 kva=50.0 EmergHKVA=75.0 %r=0.399408 XHL=2.4 XLT=2.4 XHT=1.6

New Transformer.tr(r:p1rdt533-p1rdt533lv) phases=1 windings=3 %loadloss=0.798816 %Noloadloss=0.472 normhkva=27.5 wdg=1 conn=wye bus=p1rdt533.2 Kv=7.199560000000001 kva=25.0 EmergHKVA=37.5 %r=0.266272 wdg=2 conn=wye bus=p1rdt533lv.1.0 Kv=0.120089 kva=25.0 EmergHKVA=37.5 %r=0.532544 wdg=3 conn=wye bus=p1rdt533lv.0.2 Kv=0.120089 kva=25.0 EmergHKVA=37.5 %r=0.532544 XHL=2.4 XLT=2.4 XHT=1.6

...